489

CA -33.5917 -15.9036 37.771
CA 10.6692 37.6369 53.7017
CA -24.9516 -1.19021 46.0591
CA -10.8628 -10.6629 38.3177
CA -24.0798 10.7003 50.0602
CA -27.9562 -20.2781 35.6479
CA -15.7947 -21.6851 69.0608
CA 5.14762 35.9845 40.6815
CA -19.5483 11.2002 51.2237
CA 6.79212 -4.83563 57.6322
CA 35.0095 5.47309 36.1964
CA 3.64511 -16.6043 22.0148
CA -29.3485 19.8677 45.9993
CA -10.8944 17.0789 54.3296
CA -34.367 -5.59191 66.7464
CA 9.16378 15.7321 58.6014
CA 12.8421 -2.38971 46.1633
CA 2.73226 1.15808 73.8432
CA 7.83148 23.6362 23.8434
CA -14.6405 17.2265 55.6349
CA -14.5522 -19.1243 67.7943
CA 5.08464 17.4693 55.8812
CA -30.2349 1.46656 58.4084
CA -23.4438 -19.945 34.2668
CA -27.6026 3.93261 65.3047
CA 27.0356 -12.0081 69.5855
CA 13.2367 -11.1521 56.3994
CA -19.8969 -6.50038 78.1849
CA 28.0464 15.0368 53.9579
CA -25.7171 13.2862 70.6325
CA -29.0458 -13.3993 48.3273
CA 7.36618 -36.6366 58.3756
CA -0.432526 10.5355 79.3859
CA -11.9609 13.8843 43.736
CA 0.181923 17.5781 44.7972
CA -2.67979 0.745384 17.6608
CA -4.58004 -16.8162 60.8277
CA -18.463 13.0795 36.3663
CA -20.8828 -16.8175 39.0642
CA 14.2511 -1.64586 68.0745
CA 17.4063 -11.5702 68.9609
CA 5.1991 21.3135 26.7193
CA 1.23206 -12.7584 20.2183
CA 18.9506 23.509 45.8302
CA -2.31265 11.2734 82.3679
CA 7.93911 -7.29603 65.6647
CA 11.0993 -14.7731 79.2727
CA -14.2986 3.13205 50.2927
CA -13.6435 -26.304 37.8772
CA 12.7321 -11.3926 14.3627
CA 3.13358 26.1573 75.2756
CA 6.84306 -28.6747 35.0435
CA -14.1321 1.46477 28.4728
CA -4.1662 -21.3615 67.0445
CA -13.8312 18.4745 71.3276
CA -27.7089 -22.9139 56.0944
CA 29.1132 24.9326 52.4673
CA -28.2604 -13.1807 42.5253
CA 6.93785 -35.5765 35.8165
CA 18.3484 -19.2015 50.0377
CA -6.57719 17.2222 63.6129
CA -8.41685 -21.9897 69.1283
CA -30.3317 -24.3045 44.2004
CA -5.05299 34.4052 57.4938
CA 28.5155 -20.4434 58.39
CA 3.42985 -34.4662 56.9331
CA -34.981 -5.01291 38.0946
CA -13.364 31.511 56.0685
CA -6.1632 15.1231 63.2807
CA 8.21438 -20.9094 65.8173
CA -8.76764 2.19409 46.0153
CA -11.5575 -7.27402 35.6103
CA -7.12913 20.6361 81.1721
CA -11.1353 -31.45 29.934
CA 16.6512 16.0367 58.8225
CA 20.3405 22.9291 58.6501
CA 10.362 -6.32298 19.6184
CA 16.4695 3.51665 34.267
CA -24.6097 -16.0172 48.7799
CA -26.1365 3.73978 24.5116
CA 16.8969 -14.1404 72.5311
CA 10.5906 -3.62764 40.1858
CA -1.39886 9.2859 38.1054
CA 6.65754 -26.8091 29.2412
CA -6.739 17.5457 61.2496
CA 4.56789 -27.474 54.5959
CA 13.0339 20.6093 31.0044
CA 20.522 32.4763 39.8922
CA 7.38165 -16.5607 33.7829
CA -1.62138 29.5217 61.4816
CA 10.9798 -22.9956 42.71
CA 17.6175 16.8693 51.7697
CA -16.7993 -26.0831 71.1795
CA -35.6904 -7.98183 59.4151
CA 9.84767 -10.2924 26.0077
CA -19.0813 20.9102 47.1432
CA -29.0022 0.786161 63.0028
CA -6.53173 -18.8252 54.3733
CA 11.7029 -28.9779 58.9251
CA 16.2662 26.0079 44.9927
CA 2.21706 -17.8317 32.9095
CA 26.8895 12.5361 25.042
CA -4.97361 8.49307 73.0449
CA -25.9836 14.4504 37.6614
CA 29.5442 -11.0489 31.6401
CA 8.58504 -31.2065 42.479
CA -7.66205 23.9958 66.6488
CA -19.468 1.44045 19.7235
CA 12.5897 -5.66117 22.77
CA 14.3754 8.02667 74.1829
CA -38.6979 4.94586 55.0403
CA -28.207 4.99225 34.7833
CA 13.631 -23.6937 69.6683
CA 4.81433 34.3608 32.5017
CA -13.5379 -11.0631 32.3322
CA 5.81793 21.9472 36.6911
CA 1.24741 5.21442 88.7911
CA 16.0683 -20.06 21.143
CA 33.8488 16.7407 50.3331
CA -1.28685 -28.0929 53.1058
CA 2.60644 -33.6158 29.2176
CA -20.3047 18.632 77.7135
CA 21.145 24.5898 50.7906
CA 8.40207 13.5951 63.5055
CA -12.9629 -27.0874 72.2105
CA 11.5612 -10.666 66.4345
CA -0.0849505 12.2376 48.1396
CA 12.6415 -15.1448 72.0537
CA 16.9467 23.8365 29.7838
CA -13.1138 -3.29247 73.3841
CA -23.3198 -15.421 69.5567
CA -31.1119 -17.9541 55.7846
CA -9.42426 6.38043 85.9571
CA -3.81116 25.7836 35.0356
CA 13.8527 22.0544 77.898
CA 2.03268 3.19907 56.8428
CA -13.6 -14.5686 75.9635
CA 6.25199 37.122 39.4623
CA 12.2906 7.87509 86.6408
CA -17.9026 -9.58065 68.0502
CA 10.0419 -25.0122 70.5954
CA -13.3165 29.668 39.5782
CA -6.74619 -23.1413 74.8953
CA 1.70343 -10.3683 29.6997
CA 12.1711 -1.13699 60.5461
CA -13.4145 -17.7834 44.6511
CA 20.864 20.4111 59.6677
CA -34.5185 7.48777 56.9035
CA 27.6226 12.9225 37.8963
CA -8.86426 -21.6385 51.0867
CA 23.6375 -4.02179 55.7934
CA 10.4229 -21.716 29.0593
CA -3.50466 -22.8238 51.0003
CA 11.6294 15.3117 33.3709
CA -28.4979 -4.69473 25.6549
CA -21.1952 11.8528 60.2521
CA -36.0126 16.3409 52.2823
CA -0.432854 5.02757 68.3521
CA -36.3946 -3.95095 46.3576
CA -7.06279 15.6358 40.497
CA 19.6447 8.14701 16.7677
CA 25.4906 20.0198 42.6255
CA -22.0943 21.1736 75.3568
CA 11.363 18.4118 57.5871
CA -3.93539 17.851 72.4083
CA -23.8679 -27.3644 56.6309
CA 4.9359 -2.31315 52.8748
CA -27.5131 -12.1034 67.4701
CA 16.4656 18.1157 41.3711
CA 14.6274 3.32838 70.0158
CA 5.80213 -3.65472 65.0824
CA 15.3152 -36.7135 46.2064
CA 0.8515 -8.84486 34.3648
CA -11.9711 1.47066 47.3092
CA 4.2868 -31.7629 51.421
CA 23.9133 -8.95289 58.7066
CA 12.0901 -1.73 13.8602
CA -5.88299 4.62198 51.6051
CA 17.3925 -4.78477 32.2887
CA 5.5964 -21.2357 21.2868
CA -23.2522 -0.505401 35.7218
CA -3.48045 -15.887 77.2175
CA 3.72012 -35.8889 65.5405
CA -10.2159 -18.2063 57.4776
CA -4.29861 -6.75455 46.2752
CA -11.4041 11.2254 75.1669
CA -10.9247 -10.7047 55.3125
CA 7.79268 11.5131 30.2302
CA -1.59494 -6.07575 14.8751
CA -4.7729 21.8655 22.8552
CA 17.6192 -33.5051 49.6514
CA -18.6369 -30.2197 66.9693
CA 3.65519 -7.17339 46.7598
CA -30.0875 -1.2603 68.213
CA -24.2289 -14.898 58.6927
CA 6.5268 15.8463 58.8587
CA 7.80288 22.9256 80.3431
CA 20.0197 -9.05055 17.4168
CA 8.8743 30.2818 35.6953
CA -19.7064 -6.24351 75.2597
CA -20.3592 -17.1302 62.1689
CA -16.0405 6.83032 47.2491
CA 5.61685 2.36882 22.6762
CA -30.3256 -1.95751 30.1635
CA 2.76189 19.0861 29.9544
CA -7.39578 19.1012 43.4486
CA 17.8561 26.6551 42.0218
CA -8.98573 16.803 57.2077
CA 19.4689 13.7051 72.2042
CA -14.6695 9.0589 62.93
CA -5.62609 2.38732 13.7581
CA 3.15452 -22.0593 18.9152
CA 28.4754 25.4558 45.6217
CA 13.3698 -14.1009 15.8578
CA 12.2454 -32.1211 30.8631
CA -5.93992 7.79574 33.0707
CA 29.0864 -25.5413 57.3192
CA 34.8762 4.56443 44.393
CA 2.95165 8.42235 84.4611
CA -37.4942 -4.49318 53.1962
CA 7.61248 22.9104 65.1552
CA -6.45817 17.4832 49.4144
CA -1.96395 31.9593 69.1806
CA 4.13382 37.1233 61.4443
CA -23.9076 25.4652 43.2047
CA 25.0127 -11.3634 25.2914
CA 2.37009 -5.88263 60.5988
CA -25.6168 18.0649 67.148
CA -21.4116 -25.58 46.5159
CA 2.58146 26.604 64.2286
CA 2.92213 -7.73815 74.8439
CA 32.1863 -4.5321 38.9442
CA 2.87653 25.8036 50.9453
CA -12.3936 20.7805 28.0503
CA 17.167 -33.9045 56.2808
CA -0.361149 10.1707 29.3978
CA -21.0806 18.2673 28.0999
CA 4.42526 -24.6502 74.0842
CA -17.1819 23.8295 72.5592
CA 23.7555 -21.1473 67.7679
CA -15.4595 11.7919 76.0384
CA 3.97272 -30.5431 71.7093
CA -12.0696 26.4265 39.6815
CA 17.001 -24.9181 52.2401
CA -9.68661 -2.79377 55.0537
CA 10.1823 13.5656 47.7821
CA 3.17195 31.0288 31.2358
CA -9.85454 -25.3325 46.2794
CA -31.3873 -6.77941 28.4573
CA 12.0797 -17.0676 74.9158
CA -22.1534 -11.5907 45.8222
CA 23.8658 -7.05848 58.0848
CA -38.9366 -7.73509 46.3296
CA -9.10514 9.96785 59.6641
CA -13.3768 -24.272 30.8811
CA -30.6828 -5.6837 44.0275
CA 20.6161 14.3972 23.6577
CA -20.405 12.4626 69.5639
CA 10.173 17.8873 41.2385
CA -0.888574 25.7432 75.1865
CA 18.8969 0.942674 53.5194
CA 11.2852 -9.32564 33.9842
CA -17.598 -9.17543 78.558
CA -25.6698 7.25881 48.7792
CA -13.1284 -9.08054 73.3629
CA 20.8641 22.1479 50.5337
CA 9.36635 -19.7716 67.8876
CA -3.09587 -32.371 70.5615
CA -22.919 -0.0300662 24.6773
CA -11.7325 12.2833 15.3192
CA -0.937327 6.3392 32.8895
CA 24.0834 -30.6821 56.4065
CA -6.39735 -0.282197 27.121
CA 32.4861 -6.32568 54.3707
CA 18.6397 -3.31731 56.0483
CA -26.4268 4.58459 63.1539
CA 22.646 -28.7305 56.2404
CA 3.075 1.54304 63.9321
CA -3.49582 -34.2436 38.0315
CA -33.7951 6.26019 64.9556
CA -0.674119 30.0861 27.1545
CA 22.8731 27.8166 43.7961
CA 5.23692 16.8542 38.067
CA 1.64512 -30.4495 45.043
CA 35.2095 6.87364 55.283
CA 12.2051 11.4302 76.7583
CA -33.8056 -11.1818 38.1308
CA 17.7915 -18.5029 31.0216
CA -9.77779 -15.2808 26.0502
CA -2.24576 15.4819 14.3159
CA 17.0468 25.4859 72.2301
CA 20.6726 3.78588 79.2013
CA 10.2353 25.495 64.4542
CA -5.00997 37.4183 59.346
CA 0.500995 20.2295 46.5848
CA 14.7306 -22.0038 71.531
CA -0.0380624 0.284786 36.3961
CA -0.291919 -26.2892 47.1308
CA 11.4893 -19.1933 28.4492
CA 36.0367 -11.0853 59.618
CA -30.6484 12.5291 66.3386
CA -27.5981 -1.60982 33.729
CA 21.7246 4.69418 65.0417
CA 6.40152 -9.62296 76.8787
CA -9.87523 26.9832 36.8717
CA -7.6167 -13.8092 39.2835
CA -7.41175 -9.20993 58.7192
CA -11.9203 -24.5191 38.1363
CA -33.6534 -12.5087 55.6393
CA -19.6927 -14.9192 22.9254
CA -3.62687 3.16503 44.7158
CA -11.2795 25.6407 33.1749
CA 20.0825 5.89206 37.8476
CA -5.55466 2.80398 56.5028
CA -3.28941 -5.11024 82.1255
CA 13.4286 14.4209 21.3882
CA 1.20951 8.28571 27.9013
CA 27.0078 0.661218 43.0878
CA -13.6983 12.1385 61.2313
CA -2.31905 -16.2734 62.6984
CA -0.919151 -8.17319 43.1586
CA 13.7977 -22.1321 75.0783
CA 2.42609 -24.6797 58.1391
CA -6.87909 -16.9179 30.8474
CA -23.0609 14.8038 56.7937
CA 22.3876 28.6745 62.5623
CA 11.4088 -12.0695 78.0224
CA 12.8673 20.0383 33.0168
CA 4.13518 -20.0469 82.4339
CA -34.2628 -15.046 52.1262
CA -25.0274 3.97375 36.7945
CA -25.2594 25.2886 34.8907
CA 37.6701 1.53779 55.5743
CA 6.44511 3.01411 68.1182
CA 31.9587 9.59675 62.5293
CA 19.6 -23.3047 48.6856
CA -11.5379 2.48911 44.5292
CA -18.591 21.5573 43.9488
CA -22.0704 23.0959 62.6823
CA -21.1966 -11.5286 48.4793
CA 10.3935 -36.6794 59.4623
CA -7.61096 2.62047 12.1558
CA 5.12014 -25.8759 33.8362
CA 15.1785 -15.2098 18.3117
CA -24.6995 -4.87296 70.2354
CA 16.6227 17.7341 26.8689
CA 29.2746 18.7731 49.7326
CA -13.4094 -12.1172 76.2341
CA 35.8238 11.3711 44.6057
CA -4.74764 -33.6241 49.2834
CA -12.824 -12.417 78.285
CA 25.3598 -17.0362 43.3566
CA -15.8844 -9.30425 73.4869
CA 23.6938 -17.8626 73.5842
CA -21.1009 -2.74329 23.5949
CA -30.1457 -19.5671 65.8037
CA -5.82168 -5.03212 35.0753
CA 25.0936 -11.1661 61.4267
CA 13.2147 19.8696 78.9777
CA -11.5265 33.415 55.1785
CA 2.09491 9.10191 65.8668
CA -0.709047 3.05519 38.5868
CA 17.5956 -30.0453 38.232
CA -25.7079 6.48954 79.666
CA -4.86575 -18.5892 20.935
CA 10.4061 14.7303 21.3337
CA 22.5575 4.3858 82.1439
CA 9.48229 8.91666 72.2804
CA -13.4741 20.6686 67.6261
CA 2.40154 -37.2753 44.8395
CA -11.842 11.8913 66.6545
CA -7.69797 -19.711 47.8852
CA -24.1507 19.8537 51.7229
CA -3.91605 22.8726 70.4736
CA -9.87652 5.39245 40.9448
CA -31.1311 -21.1011 43.6503
CA 0.982114 26.3941 55.8208
CA 28.2543 -9.92956 43.9465
CA 18.0464 26.5275 57.9604
CA 30.9394 -0.943112 39.1188
CA -0.560845 13.8742 33.9952
CA 0.203806 -14.6408 62.1988
CA -14.2402 24.5888 34.0309
CA 8.12103 10.134 51.767
CA 20.3483 -6.08319 49.7797
CA -22.5392 -15.5498 65.2525
CA 28.955 6.24611 68.3025
CA 21.773 18.3104 32.5136
CA 26.28 7.55958 63.8311
CA -20.716 -13.7501 72.3446
CA 1.21705 -25.053 24.9416
CA 4.25647 18.4437 33.4999
CA 16.5056 -30.7205 50.6383
CA 8.67343 14.2697 40.8197
CA 27.4355 -11.6745 76.5248
CA 31.5157 3.99914 63.47
CA 12.0509 -20.2395 45.4119
CA 7.06763 -14.3837 63.7734
CA -30.015 18.5733 50.9486
CA 6.95329 -16.0522 20.4404
CA 23.4318 -21.234 50.0584
CA 21.226 26.0043 63.6828
CA 28.451 16.2312 48.2783
CA 9.27766 9.65312 50.0471
CA 33.0288 -4.81252 46.0312
CA 22.0255 22.1773 63.3019
CA -2.45132 0.680206 42.2196
CA 2.4266 -16.1496 63.8051
CA 17.2606 18.6265 66.2696
CA 3.10535 31.5568 25.9572
CA -6.62123 -3.05465 70.4461
CA 8.46571 -36.8896 47.2979
CA 25.0415 -8.07446 22.6006
CA -21.3611 23.5278 42.0725
CA 2.87605 17.8545 50.6446
CA 27.2602 1.75068 33.7458
CA 16.0495 -15.5166 63.3008
CA -0.00133792 -22.4864 40.8886
CA 32.7386 -2.2409 67.171
CA 33.6564 -16.3938 38.7949
CA -3.83134 6.59252 50.4356
CA 15.9976 -7.88625 65.8688
CA -12.9192 -12.8631 19.3134
CA 10.1545 26.1943 57.2879
CA -29.4491 8.17229 41.6482
CA 31.0254 3.54482 27.7554
CA -24.1803 1.04291 58.1492
CA -11.0033 26.9212 34.9997
CA 5.94777 -35.7524 39.8757
CA 1.66759 27.1071 38.4035
CA -21.854 -20.3453 26.2784
CA 30.9783 12.8336 64.0359
CA 28.4456 5.21744 59.5554
CA 8.38608 -15.1937 49.7096
CA -1.46648 -7.09728 45.9742
CA 17.9106 -15.7363 49.9614
CA -8.72493 0.0944167 36.8612
CA -31.302 -11.9899 55.4669
CA -37.6551 10.8576 53.9092
CA -18.3335 29.1676 30.1163
CA -25.2614 -9.00471 67.8721
CA -22.8894 18.1052 23.9091
CA -27.3741 3.07039 54.0551
CA 3.546 -2.4238 33.1604
CA 16.8577 -32.8727 37.8865
CA 9.10547 -4.29342 50.4938
CA -20.4625 6.04628 69.8854
CA -26.6707 -14.3949 34.607
CA 9.0305 15.6937 53.8
CA -24.7993 -1.89985 39.2684
CA -9.14864 -1.11709 74.9988
CA -5.64107 -9.474 20.4134
CA -10.6764 1.20838 39.2457
CA -10.8519 11.9538 77.9281
CA 18.5255 -1.84529 76.1989
CA 5.06946 2.38535 60.5368
CA -12.8137 -0.347024 57.5721
CA -16.4748 -11.9277 61.217
CA -19.4494 -6.06953 39.4824
CA -7.80758 -22.0057 39.7535
CA 26.3228 6.7835 60.3477
CA -5.50747 -4.07865 60.2
CA -3.4694 9.77639 41.858
CA -5.23045 11.8153 69.3829
CA 8.47777 5.87727 29.3591
CA 8.27173 -17.0282 17.7754
CA 1.89327 -19.8043 79.8545
CA 5.35021 0.996038 70.4157
CA 6.66981 19.4232 16.2351
CA 33.1002 -4.22305 33.1302
CA 4.36087 13.0838 28.9274
CA -6.6953 32.1425 29.5513
CA -1.88997 -4.75875 69.6525
CA -20.8352 -16.9976 51.7231
CA 0.0722633 14.5295 86.9458
CA -12.111 -29.5056 70.1454
CA 23.6797 -15.1049 22.3046
CA 5.34201 23.1186 43.9405
CA -19.6437 8.89131 46.2586
CA -2.47994 -0.336588 72.961
CA -2.45834 -37.3515 44.006
CA -21.1444 -13.6147 27.2804
CA -16.8728 18.5727 41.5939
CA 0.929756 26.4116 28.9516
CA -1.24116 19.8411 79.7698
CA 20.2285 -20.0146 64.2929
CA -19.9204 -2.85714 30.0113
CA -8.43584 -21.216 32.1644
CA -3.35234 -22.7295 35.7712
