489

CA 11.5746 -4.94685 75.0247
CA -1.04546 18.7875 14.5177
CA 14.9449 22.059 41.0571
CA -1.30843 -0.964281 53.2284
CA 1.94319 25.0814 49.0036
CA 7.46437 1.02426 63.535
CA -9.11367 -7.17745 53.2369
CA 0.108361 26.4858 78.3396
CA 31.8315 -12.383 39.8439
CA 4.71189 6.97942 71.4217
CA 9.39159 9.13973 19.0617
CA 5.19806 7.15817 17.0799
CA 28.7569 -9.90455 51.4138
CA -1.15334 6.98281 71.3853
CA 35.606 -12.8315 45.5349
CA 6.52888 15.0092 70.8331
CA 18.3923 -16.7358 66.3472
CA -12.1493 34.6706 69.6015
CA 18.314 -14.6751 50.4002
CA 36.5574 -21.8726 56.4757
CA 22.2352 -13.0539 47.2205
CA 9.39279 -1.90658 44.6121
CA 1.99511 -11.9488 44.7366
CA 16.329 4.19147 68.3218
CA 6.09704 24.0345 79.4038
CA 1.73978 16.3635 29.045
CA -3.71445 2.8416 68.2315
CA 5.18225 24.7674 74.5982
CA 0.299884 20.7435 18.6549
CA -5.05426 27.7494 33.8054
CA 5.31201 5.22064 68.7976
CA -0.843849 4.3671 71.0211
CA 42.5966 -29.0001 58.1965
CA -6.02252 -22.288 30.4588
CA -5.44611 -12.6091 48.8672
CA 2.58421 15.2735 69.0989
CA 4.34146 -1.41778 49.4075
CA 15.9197 -2.38471 80.546
CA 1.33324 -11.1995 93.3027
CA 28.8612 -20.8752 34.885
CA 14.5665 -17.7022 48.0803
CA -2.12314 -1.15069 58.6788
CA -2.44001 -13.3999 83.5755
CA 6.05295 -2.63473 47.9473
CA 6.31157 12.3295 63.614
CA 2.62765 9.21496 81.48
CA 8.96673 4.18598 81.8449
CA 15.4106 -29.8105 61.0565
CA 8.52892 18.7825 12.5799
CA -0.822084 3.84991 79.1345
CA 15.3059 -6.51114 86.7369
CA 32.7228 -15.4115 48.4406
CA 5.7086 0.0707278 67.7781
CA 18.0656 18.4723 47.3041
CA 0.779822 -7.7277 48.1924
CA -7.09437 -0.0190317 81.5638
CA 21.9444 -23.6445 51.1272
CA 12.4612 -6.81563 78.1437
CA 4.2609 0.329571 75.4004
CA 1.52599 22.9295 78.199
CA -6.49842 -1.83099 67.9026
CA -0.830573 -5.77399 84.0714
CA 28.2608 -12.0913 38.259
CA -1.36226 5.66584 59.2369
CA 21.2428 6.31418 72.3581
CA 4.83565 16.2361 18.7782
CA -1.27603 6.60342 68.6303
CA -1.10168 12.0175 80.1236
CA 7.40259 15.7223 63.4969
CA 6.04624 17.2334 77.5526
CA -5.97866 20.109 34.1225
CA 0.469455 -9.6477 89.1443
CA 6.77847 17.931 47.118
CA 7.97835 -2.80371 92.8869
CA 2.63028 -9.5647 48.2767
CA 14.7786 22.6151 43.7503
CA 12.3728 24.7493 42.5846
CA 22.9627 -11.1522 82.6723
CA -11.221 -0.694372 72.2588
CA -10.2757 23.2227 70.5893
CA 18.6072 15.1006 39.0713
CA 29.1484 -11.276 47.949
CA -0.846496 -0.457171 67.6885
CA 5.20364 28.0977 77.8822
CA 0.407422 10.1061 63.9683
CA -0.93418 -20.1069 32.9429
CA 9.38001 15.696 43.4715
CA -12.8667 -8.71645 56.7702
CA 1.73214 -6.1187 48.7457
CA 31.6741 -14.436 52.4815
CA 40.4795 -23.8921 49.1622
CA 19.776 13.43 37.8703
CA 43.4896 -17.7062 43.0187
CA -0.532502 -11.3687 38.0515
CA 2.17582 -20.8094 36.2681
CA -4.50383 -10.8394 42.6662
CA -5.85464 25.3157 32.8314
CA 22.6695 -21.7052 53.564
CA 13.5893 -8.25414 43.696
CA 3.78622 22.4782 72.6483
CA 3.6898 24.7303 48.6873
CA -1.5973 -14.7648 37.8734
CA 3.15509 4.81154 68.416
CA 11.3671 -2.20325 78.3212
CA 21.883 -12.8179 90.6447
CA -4.28307 21.9493 76.1907
CA 14.533 4.03819 38.5164
CA 3.51518 -0.0493918 54.6636
CA 36.2269 -11.3275 48.9318
CA 29.8441 -16.7777 47.4356
CA -8.86617 1.48564 63.5448
CA 39.5973 -26.2563 45.2836
CA 34.5031 -9.81569 46.8784
CA 4.8197 4.92993 89.3988
CA -2.30489 1.14693 78.4246
CA 17.3336 18.4628 68.7582
CA 3.41568 18.8066 19.118
CA 42.7456 -19.5784 50.5132
CA 11.6129 17.4595 60.2174
CA 10.4992 -3.49429 39.2506
CA 8.47108 12.3454 69.8264
CA -2.26871 19.098 35.9143
CA 38.8667 -14.9282 37.4469
CA -0.525573 19.3612 72.0775
CA 18.0771 -10.2736 91.0154
CA 12.2927 -1.91477 82.9997
CA 2.66557 -0.106439 94.3041
CA -2.7011 22.999 31.6152
CA 12.1961 6.65922 15.5017
CA 4.18488 -1.05324 68.0879
CA 12.8772 -8.04365 39.5958
CA -3.45687 19.1597 26.9422
CA 41.6213 -21.629 48.6058
CA 13.1186 10.3766 72.7745
CA -1.62409 25.6718 35.5925
CA 6.91272 -0.934218 83.061
CA -3.87564 11.2686 78.556
CA 25.6461 -10.5016 41.2496
CA 1.83373 1.38836 60.2089
CA -1.97367 19.9994 24.7201
CA 0.0206391 -6.4473 81.5026
CA 25.6614 -10.7864 45.887
CA -5.10618 10.0318 26.56
CA 10.5499 1.11298 48.2122
CA 38.5743 -21.6167 52.1914
CA 14.988 -25.6235 50.3801
CA 34.936 -22.4074 42.6509
CA -3.26035 -1.43302 71.1858
CA -2.57517 -9.95387 38.5821
CA -4.84924 4.43869 88.8146
CA 40.1543 -20.3136 50.8412
CA 5.42989 14.0384 73.8425
CA 43.2181 -15.6173 37.9594
CA 8.78066 6.78768 14.2626
CA 3.3272 17.154 14.6847
CA -3.31345 16.6191 81.4582
CA 16.1199 2.64505 41.2995
CA 1.39883 -1.44788 59.6817
CA 12.1477 -18.461 47.0389
CA 4.60537 -4.76547 96.2777
CA 10.7768 -6.97305 44.8851
CA 4.52148 -2.96008 47.0549
CA 1.32883 0.730848 67.3045
CA -12.6614 -2.78794 49.521
CA 10.0733 14.8193 76.6934
CA 14.6596 0.825168 44.7121
CA 1.6346 -8.15256 46.0077
CA 15.5299 -23.568 62.15
CA 13.3549 -0.536763 81.8272
CA 29.2565 -7.66252 36.7184
CA 2.28917 -4.09219 48.288
CA 12.8973 5.64455 66.0099
CA 6.27953 9.36665 88.6726
CA 0.3518 18.2518 74.3758
CA -14.1049 -1.30905 46.9395
CA 0.816473 24.031 47.7675
CA 37.5744 -16.2961 50.0454
CA -11.6349 -12.3675 44.2689
CA 2.11816 -7.55295 95.5545
CA 31.2918 -12.7713 49.242
CA 7.71906 -11.3944 88.5652
CA -0.232837 24.5111 20.8053
CA 33.3354 -8.38919 35.7922
CA 19.5171 -8.35467 41.4369
CA 19.123 -26.0872 65.7495
CA -6.26347 3.63273 67.7424
CA 4.25489 13.489 65.016
CA 3.35672 -10.8045 43.3514
CA 3.12131 16.0722 73.8018
CA 19.3341 -16.3237 70.3096
CA -1.43594 2.447 55.9692
CA 26.7959 -15.2591 52.9279
CA 13.6375 16.1565 29.1876
CA -1.57364 -9.03562 43.6991
CA 19.8458 -25.5568 49.5809
CA 1.79738 0.650391 62.3885
CA 2.1082 -1.03226 69.4766
CA -4.18352 32.6747 42.0235
CA 38.937 -12.5025 48.1108
CA 23.6997 -12.1882 81.081
CA 26.6192 -7.36661 41.7933
CA -3.33212 -18.4673 32.2638
CA 34.9606 -8.48149 52.1467
CA 5.83088 5.08837 74.3935
CA 29.7743 -16.8705 52.1439
CA -5.16169 -13.1334 87.5178
CA 15.7864 -19.1361 50.7885
CA -4.50346 0.0153472 60.3849
CA 17.5971 -2.88945 80.0101
CA 7.56749 20.9743 42.0178
CA -0.566416 -3.61614 66.0669
CA 9.60413 0.608912 63.373
CA 7.766 14.4991 49.8229
CA 9.98169 4.02745 61.4318
CA 6.21318 5.46897 42.5964
CA 5.99474 14.3511 18.786
CA -0.0309059 16.8313 16.5811
CA -10.7376 3.44878 59.458
CA 7.5272 16.2126 66.4724
CA 0.114791 0.286282 52.2685
CA 12.9615 -9.40312 91.7698
CA 11.0196 -2.2367 45.3539
CA 1.78054 14.8845 89.3332
CA 12.6222 12.8496 39.0189
CA -3.46455 2.87269 88.2716
CA 2.306 11.3848 73.0918
CA -6.5167 17.9759 33.0185
CA 17.1715 -8.78108 80.5347
CA 2.98735 -21.0291 33.4096
CA 5.2428 4.08096 45.749
CA 26.6792 -9.81227 44.4619
CA -6.99448 0.977195 61.2627
CA 37.5222 -20.1087 52.1061
CA 6.42088 17.9343 17.521
CA 0.870914 7.08803 26.1438
CA 17.5853 -10.4152 36.6676
CA 2.78619 12.0124 51.066
CA -2.4343 -6.35574 87.3322
CA 15.2926 -23.3247 66.4445
CA -2.6063 19.1645 86.8192
CA 10.5247 16.3128 79.3112
CA 6.66165 -10.954 90.6996
CA 0.816699 0.462604 72.9174
CA 16.9444 -10.844 79.4342
CA 15.2179 -5.75384 91.6977
CA 8.00032 0.667493 70.0458
CA 11.5107 10.0387 25.8008
CA 12.956 15.2254 27.571
CA -5.8973 2.34218 58.9158
CA -4.41991 20.8539 32.7377
CA 47.2857 -11.8439 43.4605
CA -3.64754 7.62769 48.0921
CA 6.69692 -9.53788 92.4658
CA 15.9186 -0.725407 86.6371
CA -3.8973 -15.382 35.3711
CA 18.2822 -23.8047 61.6397
CA 17.8426 -24.9243 69.5762
CA 11.6473 14.4098 28.6516
CA 2.00381 25.7131 69.2685
CA -6.84339 -1.65391 60.9507
CA -11.1065 -10.6494 43.3872
CA 3.34992 -2.40794 64.9655
CA 18.536 -28.8275 56.9123
CA -7.29175 20.1035 35.9299
CA 3.16603 -9.4413 44.9658
CA 10.2207 13.1031 62.9346
CA 30.7758 -16.8462 49.8277
CA -2.93286 18.8866 82.282
CA 12.0979 1.4682 62.9923
CA 0.644338 0.356676 46.5987
CA -2.47645 -11.1321 82.6049
CA 13.3877 -2.38621 79.1146
CA 5.34956 22.1104 21.0637
CA 37.7655 -24.1581 45.3415
CA 5.74977 1.63099 46.4758
CA 9.37064 5.94417 11.5158
CA 13.61 17.0493 42.1526
CA -0.644371 -2.80143 50.9284
CA -2.25848 -18.0448 30.3012
CA 22.2735 -2.59277 80.2474
CA 10.167 -2.16409 48.5852
CA -3.49393 17.1017 73.0629
CA -8.38911 22.2335 76.4428
CA 4.77504 -10.1753 86.3388
CA 16.8805 -2.76922 86.1698
CA -1.02495 0.877232 57.0048
CA 17.9851 8.43552 69.4276
CA 16.293 -6.10238 39.3011
CA 20.6226 -8.89707 83.2719
CA -6.17259 26.1746 31.0199
CA -2.80842 -22.26 29.024
CA 4.98511 3.39084 72.5821
CA 6.40207 13.8363 15.0623
CA -2.7925 -0.248175 89.2859
CA -5.12853 -18.2929 31.6098
CA 16.7514 -1.1592 48.9242
CA -5.65326 19.8256 74.3254
CA 0.996013 -19.5185 38.8399
CA 5.82516 13.4048 25.9988
CA 3.27777 4.56985 21.5867
CA 15.5486 18.9483 42.9751
CA 23.2559 12.8529 48.6388
CA 20.5296 -5.33699 81.948
CA 29.7805 -20.9423 43.4829
CA 4.69265 6.2013 22.9219
CA -8.27728 4.67578 62.5472
CA -2.6109 8.47574 62.4556
CA 15.7226 17.6865 45.6717
CA 2.7845 20.5786 73.3547
CA -5.33089 18.593 37.7059
CA 7.354 2.80672 68.1971
CA -4.11155 24.8072 32.6276
CA -4.31035 3.95775 55.0646
CA -2.38382 -2.90827 43.1714
CA 9.61515 10.1966 26.8954
CA 6.30432 23.0074 74.5663
CA 2.34807 14.896 16.0075
CA 42.8931 -24.8527 49.0011
CA -7.44659 20.2202 71.2855
CA 21.5277 -10.8301 48.5479
CA -3.68014 28.4721 31.1464
CA 6.30544 6.70495 67.6916
CA -0.628548 -5.27521 78.1982
CA 15.3439 -20.6729 60.5728
CA 3.46781 23.7112 76.2636
CA -0.77014 18.7322 29.3611
CA 18.9244 -20.9333 55.6312
CA 0.25118 0.060815 63.7297
CA 37.1732 -20.36 55.0678
CA 10.9145 -7.22515 41.0465
CA -2.89243 11.4602 63.9705
CA 16.8209 -0.41697 63.3499
CA 0.687226 -11.8082 81.0869
CA 10.1138 13.8262 65.3365
CA 13.4554 -8.96272 48.1117
CA 19.7305 -12.0701 47.5599
CA -3.39106 2.29261 90.6126
CA 0.481539 19.6166 79.3192
CA 11.5371 23.5195 37.8769
CA 44.1981 -19.7425 45.6195
CA 37.6693 -23.4351 48.7802
CA 11.9564 21.0066 38.7416
CA 22.1418 -7.26818 81.0584
CA 1.64372 6.87969 81.5795
CA -3.81561 3.72256 61.6225
CA -4.07003 7.02676 62.8031
CA -1.63035 2.23534 91.028
CA 7.17917 25.0794 77.6862
CA 7.29831 -3.79941 44.5118
CA -4.05038 -2.34149 83.9367
CA -2.04467 -17.8916 36.2861
CA 33.3644 -20.6829 41.1598
CA -7.57566 -0.146556 64.2501
CA 9.04338 -7.73927 41.1535
CA 11.1466 19.1137 29.6375
CA 4.22699 -5.51499 67.7746
CA -0.473066 -4.0023 43.6316
CA 28.8292 -7.9456 44.9482
CA -2.73788 0.587441 19.6345
CA -3.52706 -1.16217 50.1964
CA 27.0182 -10.8982 52.2229
CA -7.65966 -10.7362 57.6033
CA 7.58633 11.0173 76.505
CA 7.00496 4.80818 71.2895
CA -1.03154 1.73591 17.0298
CA 2.93699 -0.322661 64.6695
CA 8.47659 -13.3409 89.0977
CA -3.70781 -9.61476 50.3423
CA 24.6176 -10.7507 43.5247
CA 26.1307 -15.7873 37.5792
CA 2.38724 11.4771 13.5796
CA -3.98508 -9.11942 39.8509
CA 4.92681 -7.52704 82.9947
CA -9.6085 21.6691 33.2422
CA 1.06122 -10.1814 44.103
CA 5.99694 20.7854 24.3411
CA -0.390626 11.9372 26.9568
CA 23.2055 -18.0726 53.7975
CA 44.1071 -23.3623 48.327
CA -12.4293 -14.8237 48.6417
CA -4.26003 0.826205 53.0253
CA 2.55957 -3.13133 68.1975
CA -0.638631 12.5099 71.1713
CA 24.8429 -11.6135 82.8383
CA 3.21494 20.9888 30.5055
CA 0.789369 -10.0988 47.0497
CA 41.0289 -14.1188 55.3844
CA 2.95931 3.85964 14.7732
CA 7.57508 -1.96129 45.013
CA 22.3984 -10.4211 42.2105
CA 7.07826 2.08275 70.6802
CA -1.99134 27.0533 31.5966
CA 4.86087 -24.0203 35.1254
CA 0.167424 -11.1269 42.6393
CA -1.05533 -12.6194 36.2202
CA 17.4306 -21.6496 63.0493
CA 13.221 -3.29933 44.7083
CA 6.18007 0.0820182 62.408
CA 42.2001 -11.524 44.349
CA 12.9756 11.7108 44.6616
CA 0.62582 11.6152 51.4032
CA -3.90029 3.86661 57.9674
CA 3.32633 10.1193 25.6862
CA 5.47904 -4.16006 67.4155
CA 14.5613 17.387 34.5157
CA 0.627106 -2.83715 96.1557
CA 3.69472 7.40104 19.5446
CA 19.0602 -23.7179 66.7688
CA -9.11929 -11.7853 51.6014
CA 8.56598 14.3595 46.9893
CA 4.65152 18.8061 76.3995
CA 22.2809 -8.16875 41.299
CA 20.5422 -24.5203 64.7348
CA 17.099 -21.0887 65.0537
CA -3.85001 2.76298 82.6975
CA 1.69216 21.0325 28.741
CA 11.3225 11.0693 72.4953
CA -5.63653 -7.95112 52.074
CA -10.8351 -8.25034 52.7197
CA -3.95427 -0.941509 57.0057
CA 2.30591 16.3077 17.6512
CA 30.0414 -11.2444 37.8455
CA 12.5833 20.1468 33.6065
CA 28.5782 -14.0627 50.2742
CA 8.38244 -9.55962 91.4257
CA 8.83513 13.456 42.6071
CA 1.73036 3.71984 60.0113
CA 20.0431 -25.5643 52.7
CA 46.444 -7.54652 41.0422
CA 12.3842 -0.261828 46.9448
CA -8.56735 -10.413 52.9165
CA 10.0683 -3.51562 75.3973
CA 12.2718 16.6116 63.8599
CA 2.81833 2.85107 68.5579
CA 15.367 6.36597 68.7136
CA 12.2717 14.6503 15.4061
CA 3.35826 14.8811 79.3962
CA 2.57699 -0.692095 74.2757
CA -2.20051 13.4573 24.8602
CA 1.03065 -13.4877 43.8697
CA 8.42084 7.38971 61.8642
CA 21.0322 -10.5448 84.3773
CA 6.64683 8.69548 41.8604
CA 3.79407 8.31569 85.6307
CA 11.6692 16.3871 61.7086
CA 24.7868 -16.6989 81.4207
CA -7.95228 23.9724 73.5915
CA -6.99043 20.9303 75.8157
CA 6.1139 22.2673 11.8685
CA 12.6646 -6.40074 87.7487
CA 3.40036 20.4751 14.9781
CA 5.11093 -10.3585 45.8315
CA 18.9773 13.7224 48.5529
CA 17.812 -19.6437 57.9633
CA -10.315 -7.32334 55.7063
CA 8.23466 2.87395 60.6857
CA 1.09259 -6.08766 78.6787
CA -6.60727 22.2472 36.7039
CA 28.595 -2.6629 54.4425
CA -1.18911 1.2534 63.5103
CA 11.8431 -28.5326 58.422
CA 15.5757 -6.50248 44.0289
CA 0.170641 12.4261 73.5316
CA -3.4756 -2.65464 60.9507
CA 2.39403 6.21763 23.1172
CA 0.185348 17.0829 86.3059
CA 14.7932 -3.26346 48.6739
CA 14.2653 0.215713 48.3819
CA 12.0182 1.84431 40.0528
CA -3.11641 18.161 17.931
CA 2.51681 13.153 71.5858
CA 30.3151 -20.886 49.8432
CA 1.79525 13.3858 75.4237
CA 19.2783 -9.00608 81.2257
CA -3.434 10.8069 27.0043
CA 1.1115 1.98316 57.3608
CA 3.25062 -1.31136 82.0932
CA 6.43041 -0.489878 76.9118
CA 3.20044 17.9254 24.0887
CA -2.31669 22.2477 70.1393
CA 45.5452 -11.1988 43.3074
CA 2.65026 0.803902 49.0681
CA 37.8627 -9.44223 47.2358
CA -9.98931 -1.59286 53.4891
CA -0.692014 4.25463 62.9079
CA 1.98765 24.1076 15.7069
CA -2.64015 8.89619 65.0566
CA -8.27478 4.77808 60.2572
CA 8.53752 -1.63129 46.5321
