489

CA 44.5079 -28.3246 47.3647
CA 28.5719 -14.662 53.6907
CA 10.856 -3.16243 90.0001
CA 27.7478 -9.76439 41.1041
CA 25.1936 -20.7162 63.4633
CA 11.5301 -12.5955 54.0556
CA 34.0783 -17.5278 39.7792
CA 35.9402 -14.8436 46.6166
CA -0.0460146 2.42432 77.5147
CA 4.71189 6.97942 71.4217
CA 9.39159 9.13973 19.0617
CA 5.19806 7.15817 17.0799
CA 1.67262 -5.14043 56.5574
CA -1.15334 6.98281 71.3853
CA 35.606 -12.8315 45.5349
CA -3.47866 -13.6668 30.8504
CA 23.0109 -17.8907 71.2918
CA 15.3945 18.4929 63.8719
CA 14.1854 1.03522 42.5713
CA 20.9727 14.0059 72.726
CA 3.59897 -7.30541 91.482
CA 0.81458 -8.11132 41.6456
CA -6.34111 -6.41546 49.7052
CA 14.4054 -12.8111 77.4569
CA -0.0575163 3.20484 48.7797
CA 1.73978 16.3635 29.045
CA 2.71748 5.46974 45.2995
CA 4.93229 -9.99389 92.5007
CA 19.1552 -16.3989 47.3609
CA 12.0901 6.86767 17.6549
CA 15.152 -13.774 47.3414
CA 23.9688 -15.6456 43.6134
CA 37.0537 -17.9052 39.4542
CA 10.2785 0.548057 85.3448
CA 32.9947 -18.2518 62.5012
CA -4.75794 -4.50737 58.9215
CA 13.6933 9.17244 74.6899
CA -2.46442 -5.95193 83.4869
CA 12.0733 10.7991 18.7813
CA 17.7664 -23.0708 50.7558
CA 30.3921 -18.0421 57.1782
CA 32.5298 -18.7375 56.6486
CA 13.621 8.57592 38.1554
CA 7.2753 -3.35135 95.0897
CA 19.7646 -26.9646 63.7185
CA 13.9359 21.1459 36.309
CA 40.1995 -13.607 36.34
CA 22.7888 9.33848 71.3645
CA 9.83059 -2.52273 47.1966
CA 2.77897 -7.17739 99.4596
CA 3.61344 28.4676 76.749
CA 20.3777 -16.0158 44.7777
CA 15.6157 -9.95685 44.7453
CA 19.6283 1.39394 46.2619
CA 3.16015 -2.27783 47.6982
CA 12.8647 -1.7345 46.1622
CA -3.48702 20.1401 71.1516
CA 12.4612 -6.81563 78.1437
CA 1.01177 -6.30052 67.4832
CA 1.52599 22.9295 78.199
CA 17.3452 28.9655 44.6655
CA 22.9126 -4.01584 87.2645
CA 5.32686 8.85605 80.9257
CA 1.37018 12.0966 67.0459
CA 21.2428 6.31418 72.3581
CA 8.66084 -3.48774 78.5284
CA 4.87173 21.3105 35.7881
CA 34.2973 -19.033 37.9535
CA 1.63774 22.1069 80.2484
CA 3.9189 20.2883 14.8519
CA 17.3946 -17.1926 59.0076
CA 4.13113 -5.4637 92.0078
CA 24.6318 -6.84381 80.7169
CA -2.42751 -20.6089 35.2998
CA -1.17456 17.7964 16.3061
CA 7.91472 2.21706 70.2396
CA 9.14677 7.70079 7.18115
CA 9.50307 20.5742 33.3415
CA 9.20792 12.502 35.6968
CA -1.17027 14.3823 82.6073
CA 3.1184 -2.70925 69.9622
CA 11.2995 -20.9384 48.3665
CA 9.95571 -3.5964 75.2577
CA 1.99467 5.47482 84.0325
CA 0.407422 10.1061 63.9683
CA 3.34434 -7.15475 86.0927
CA -5.37777 -9.56374 37.3225
CA -12.8667 -8.71645 56.7702
CA 3.25696 -1.48389 58.2269
CA 31.6741 -14.436 52.4815
CA 11.0116 -10.5158 90.9413
CA 11.2604 13.9951 70.2437
CA -2.09552 13.1379 70.1584
CA 4.61176 -0.276753 68.1492
CA 1.60883 2.55664 51.6151
CA -3.88419 -7.12987 38.5947
CA 9.87353 8.04172 22.3132
CA 21.3397 -27.6482 64.5606
CA -10.4668 10.2473 30.1467
CA 17.375 -2.00001 49.7482
CA 18.0699 2.15625 44.257
CA 2.64214 19.0207 16.2863
CA 8.79156 0.474067 66.8297
CA 19.7019 -23.4895 66.3569
CA 31.2224 -10.6403 49.7627
CA 2.23309 -1.91195 62.713
CA 21.4619 -19.0134 52.7224
CA -1.11321 1.65671 73.2749
CA 22.3754 -21.9525 65.319
CA 8.24561 3.18996 82.4392
CA -0.621915 -4.30685 52.7719
CA 39.5973 -26.2563 45.2836
CA 13.8781 -11.1378 58.101
CA 35.9208 -17.6169 56.0091
CA -2.30489 1.14693 78.4246
CA 35.1719 -21.0166 52.5901
CA 3.41568 18.8066 19.118
CA 23.4166 -20.4986 60.9001
CA 11.926 6.74203 9.49896
CA -13.2351 -5.13256 57.0822
CA 9.00524 -10.7204 87.499
CA 19.6406 14.4796 70.51
CA 26.9772 -7.43079 51.8353
CA -0.525573 19.3612 72.0775
CA 35.7287 -8.53889 46.4067
CA 19.1488 -22.9668 54.7842
CA 4.19983 1.84775 80.3003
CA 13.3557 11.2718 65.863
CA 12.1961 6.65922 15.5017
CA 12.8588 6.81929 20.9062
CA 1.16012 19.1295 32.4077
CA 4.4284 4.94042 19.9922
CA -5.15739 12.0783 83.1427
CA 13.1186 10.3766 72.7745
CA 19.353 -2.993 84.6314
CA 6.91272 -0.934218 83.061
CA 4.91152 10.5299 75.2357
CA 0.00202106 0.242371 60.8338
CA 18.0214 -19.6952 42.9209
CA -13.2243 -5.95306 48.4097
CA -4.99831 12.7205 75.1259
CA -2.84508 -2.01871 88.0808
CA -0.596915 -10.9247 31.5844
CA 3.9307 14.4285 64.3853
CA 13.5012 -0.376101 67.9954
CA 7.57444 0.82151 71.396
CA 15.7796 0.477667 51.2127
CA -2.43085 1.81225 60.8517
CA 14.617 19.5711 40.9662
CA 20.3773 -7.41321 85.5087
CA 13.8293 -28.1481 64.0356
CA -10.1561 15.5112 74.6808
CA 14.7816 -13.0545 72.8621
CA -0.110638 -2.65893 91.3928
CA 12.6327 -4.26223 42.615
CA 18.3602 -13.4874 50.3742
CA -0.348482 7.01918 53.837
CA 18.4611 20.4474 44.9888
CA 12.1477 -18.461 47.0389
CA 16.8237 7.1553 67.7393
CA 5.26556 20.5114 30.252
CA -0.418633 -15.4496 35.2213
CA -5.41536 16.2694 72.3544
CA -13.0939 -5.70705 62.6425
CA -5.11959 -16.4908 36.7376
CA 22.7074 -7.80767 86.0205
CA 7.25941 3.49889 63.736
CA -8.16312 6.70781 68.0767
CA 27.1588 -5.4656 42.8963
CA 11.6417 14.9026 67.6647
CA 2.28917 -4.09219 48.288
CA 19.4812 -25.4271 66.5078
CA 10.8271 -3.52109 84.51
CA 8.35531 21.1613 35.2403
CA 37.6767 -21.2546 49.5159
CA 0.816473 24.031 47.7675
CA 37.5744 -16.2961 50.0454
CA 8.91342 -24.3489 53.1724
CA -3.63623 12.6667 24.3183
CA -5.36112 -10.5739 52.4561
CA 7.71906 -11.3944 88.5652
CA 12.627 -5.29131 44.4092
CA 21.0987 -18.048 55.8803
CA 29.9344 -23.5376 53.5623
CA -0.636798 6.25491 67.7398
CA 10.3823 1.06402 90.0524
CA 19.1351 13.2496 35.8054
CA 32.7696 -10.9344 48.473
CA 5.82885 -0.790292 44.5521
CA 19.3341 -16.3237 70.3096
CA 9.27793 -13.9085 53.7462
CA 26.7959 -15.2591 52.9279
CA 9.56093 -3.03577 50.227
CA -11.1742 -9.781 54.8212
CA 7.24962 7.77063 10.2923
CA 31.6942 -21.3401 59.0063
CA -3.04771 9.81425 58.4937
CA 41.2789 -12.8731 53.2117
CA 24.7749 -13.988 43.4866
CA 20.0427 -14.2683 48.7589
CA 8.05699 -5.91569 90.04
CA 10.3521 1.60841 69.2216
CA -6.21004 -3.72754 57.2558
CA 5.39607 3.5446 72.2773
CA 22.5961 15.1387 35.3237
CA 18.527 -16.2747 41.855
CA 37.622 -22.5914 52.831
CA -7.75089 12.6752 27.2061
CA 29.2853 -22.4324 54.9812
CA 6.20151 20.1951 17.1134
CA 30.1112 -9.08739 35.5095
CA 8.61187 -4.49773 84.088
CA 14.0932 -12.9671 70.6181
CA 1.92971 0.426872 76.8688
CA -3.36535 8.53234 52.9872
CA -1.55749 10.6644 25.1649
CA -7.34217 15.1527 73.3195
CA 12.4492 -2.01512 43.4827
CA -0.711632 14.5904 27.5538
CA 20.7039 -8.08509 40.1053
CA 12.9615 -9.40312 91.7698
CA 0.507124 -22.5044 39.4222
CA 1.309 -5.06341 96.3493
CA 12.6222 12.8496 39.0189
CA 6.71629 -6.96175 95.7352
CA 20.7328 -21.2417 63.0734
CA 7.6788 14.46 41.0638
CA 10.7933 9.95808 73.3055
CA 2.98735 -21.0291 33.4096
CA 6.89057 0.456182 65.0127
CA 14.7642 -5.47007 41.2681
CA 0.268831 23.5102 33.0533
CA 10.1804 13.6734 63.9444
CA 16.383 -26.2553 67.3429
CA 3.06296 16.0252 16.8609
CA 17.5853 -10.4152 36.6676
CA -0.83498 19.8676 80.797
CA 2.75214 0.887631 80.8395
CA 25.6016 -9.82404 52.8494
CA 10.726 -3.99068 46.3015
CA 12.3567 2.96556 46.631
CA 6.66165 -10.954 90.6996
CA -0.0657656 3.48833 53.845
CA 9.18831 3.7558 66.8459
CA -6.43656 11.8766 72.785
CA 32.9547 -22.5295 54.3876
CA -1.12654 -3.58611 75.5599
CA 10.8609 -8.27159 87.278
CA 37.3714 -19.0789 50.5204
CA 0.744347 -6.1582 52.5235
CA 47.2857 -11.8439 43.4605
CA 34.8149 -18.9038 53.5629
CA 6.69692 -9.53788 92.4658
CA -1.45725 -8.10345 44.7264
CA 15.1936 5.72208 12.0723
CA -5.85978 11.3226 77.5428
CA 14.2617 6.5804 14.9145
CA -4.29925 18.22 13.8684
CA -8.32275 20.1802 34.7083
CA 38.3402 -11.4878 58.7098
CA 23.4738 -17.8611 49.476
CA 38.9169 -14.208 53.7647
CA 10.5116 -6.05764 88.8275
CA 19.2643 -20.7342 59.3036
CA 14.5886 20.4189 33.0799
CA 9.33245 3.92677 79.8236
CA -2.38564 19.702 14.7641
CA 33.8976 -14.2551 34.2228
CA -5.9041 18.7027 37.2063
CA 0.644338 0.356676 46.5987
CA 19.9082 -25.9273 55.2889
CA 13.3877 -2.38621 79.1146
CA 5.34956 22.1104 21.0637
CA 36.6349 -26.1087 42.6716
CA 5.74977 1.63099 46.4758
CA 35.9104 -18.5156 36.7164
CA 13.61 17.0493 42.1526
CA 14.3603 15.5064 63.3371
CA -8.50243 -14.1834 40.4697
CA -3.33843 8.53186 25.625
CA -0.835721 -22.4892 35.2179
CA -3.49393 17.1017 73.0629
CA 3.85765 -7.99093 87.9679
CA 46.9277 -31.7874 58.2578
CA 5.4345 0.773771 53.5311
CA 20.0794 -9.93355 39.5191
CA 3.92602 21.9819 26.6825
CA 24.0042 -23.4152 59.8269
CA 21.764 -19.0474 49.3859
CA -6.17259 26.1746 31.0199
CA -0.619602 22.9798 76.739
CA 2.06555 19.672 20.0147
CA 11.7447 21.4324 43.8472
CA 13.7738 2.79402 44.0461
CA 10.1874 6.21856 20.4571
CA 0.237383 3.66922 69.4765
CA 5.5547 -0.426482 70.0449
CA 19.5468 -20.8305 53.1756
CA 22.2995 8.03382 70.0068
CA 3.27777 4.56985 21.5867
CA 15.5486 18.9483 42.9751
CA -2.21321 -10.7292 43.728
CA -0.585495 -19.4086 37.3236
CA 8.81311 -7.6792 92.4796
CA -2.49874 16.4865 69.2111
CA 18.5596 -11.6243 43.2174
CA 15.7631 -7.3252 42.403
CA 11.7968 -10.8111 80.1714
CA 14.3548 7.59817 21.8771
CA 13.3281 11.3685 70.267
CA 7.62742 -2.54827 83.5871
CA 4.82072 2.4092 73.5704
CA -4.31035 3.95775 55.0646
CA -2.38382 -2.90827 43.1714
CA 17.5827 -30.8014 67.3561
CA -6.562 -10.6749 35.762
CA -2.142 3.14887 21.4702
CA 27.7177 -11.8547 47.454
CA 23.8995 -12.6644 40.7742
CA 16.7909 -24.6844 54.1192
CA 17.7799 20.316 43.3189
CA 26.0652 -21.781 53.3522
CA -1.51109 -12.7063 31.6494
CA 15.3439 -20.6729 60.5728
CA 3.46781 23.7112 76.2636
CA -0.77014 18.7322 29.3611
CA -7.52548 23.5887 31.4277
CA 28.2208 -10.1048 54.2007
CA 37.1732 -20.36 55.0678
CA 26.2165 -19.0838 50.6294
CA -5.01097 16.185 35.187
CA 36.0985 -14.5464 58.2302
CA 17.9734 12.5103 39.3061
CA -0.842338 -7.18862 86.5733
CA 17.2693 -3.51753 80.8796
CA 21.2547 -10.0113 78.9949
CA -2.81314 5.30099 62.7641
CA 11.7718 8.02631 71.408
CA 5.52772 -1.88118 78.7584
CA 15.5732 4.39148 13.3895
CA 37.6693 -23.4351 48.7802
CA 11.9564 21.0066 38.7416
CA 12.6118 -10.0376 88.7824
CA 1.64372 6.87969 81.5795
CA 11.9757 -15.3399 81.0089
CA -4.07003 7.02676 62.8031
CA 11.6554 14.2065 40.09
CA 18.3185 -19.0879 50.0226
CA -0.667457 -6.79035 94.5744
CA 18.317 0.933587 41.3784
CA 36.2219 -15.2662 38.0308
CA 31.7638 -20.9457 42.4649
CA 9.91411 8.2293 38.1626
CA -10.0133 -6.79944 59.2207
CA -4.01066 22.3455 35.9939
CA 23.0398 -19.7199 53.628
CA 18.6977 5.6344 48.5711
CA -2.98126 13.2141 22.001
CA -2.73788 0.587441 19.6345
CA -4.26132 0.903569 17.8318
CA 27.0182 -10.8982 52.2229
CA 2.70946 9.4985 23.8616
CA 17.6038 1.57652 47.8411
CA 13.7535 -6.90282 48.8385
CA 13.6069 -1.01747 87.8936
CA -8.61272 15.1369 32.9619
CA 16.9093 6.22547 47.6493
CA 18.0234 -14.1444 44.5878
CA 17.5918 19.8587 39.0666
CA 14.9477 -28.9625 65.3467
CA 4.17233 7.89331 68.9783
CA -3.98508 -9.11942 39.8509
CA -4.67115 8.20006 66.9814
CA 2.10958 13.9073 65.665
CA 16.2097 -6.71346 36.5829
CA 8.66237 16.9023 13.5281
CA -0.390626 11.9372 26.9568
CA 17.5931 -27.0629 64.2983
CA -7.87282 12.7782 71.8971
CA 19.1457 13.3611 72.0343
CA 18.5229 6.45909 41.4645
CA -2.20936 2.45566 76.6063
CA 5.97986 -11.7063 74.9182
CA -8.87249 -3.75901 59.981
CA 13.1166 -31.9922 65.7107
CA -8.32314 -9.52257 51.7093
CA 41.0289 -14.1188 55.3844
CA -4.425 -12.3153 32.6961
CA 14.7755 20.8629 42.5274
CA 17.6232 3.06863 42.2282
CA 36.0709 -10.0383 47.6157
CA 37.9504 -15.7878 48.2829
CA 3.8004 9.05129 12.6429
CA 14.6894 -1.64994 43.6363
CA -1.05533 -12.6194 36.2202
CA 5.70577 6.39614 80.0931
CA 13.221 -3.29933 44.7083
CA -9.28024 11.7913 28.3394
CA 9.53758 5.6781 36.6591
CA 11.8977 -8.64361 77.1235
CA -6.83836 8.51795 57.4484
CA -3.90029 3.86661 57.9674
CA 8.43703 9.52311 68.1143
CA 11.7291 -4.58788 49.4946
CA 12.8565 2.61113 80.6362
CA 9.45871 -2.83395 87.8956
CA -7.40861 18.3058 32.4718
CA 17.7883 -13.8979 41.3191
CA 8.19484 -10.1586 78.4218
CA 33.9676 -20.851 54.3285
CA 17.3566 -1.80392 39.827
CA 7.99769 3.82574 74.0237
CA 20.5422 -24.5203 64.7348
CA -1.5055 16.1262 83.1611
CA 36.5066 -12.4665 41.5908
CA 13.6739 11.5196 24.0437
CA -4.60378 6.68864 56.9145
CA 5.28949 8.06958 18.8909
CA -5.68865 0.324239 60.6216
CA 10.7021 8.93794 24.5229
CA 16.1592 3.96476 39.7641
CA 30.0414 -11.2444 37.8455
CA -3.83814 10.6891 83.1409
CA 28.5782 -14.0627 50.2742
CA 8.38244 -9.55962 91.4257
CA 38.9549 -15.7566 45.1672
CA -7.05029 12.7981 79.5163
CA 20.0431 -25.5643 52.7
CA 15.215 -0.85491 39.1678
CA 34.5467 -12.5865 40.4531
CA 8.37248 -23.5387 56.6445
CA -3.5152 18.3087 69.7389
CA 12.2718 16.6116 63.8599
CA 15.3183 -31.2203 63.1095
CA 15.367 6.36597 68.7136
CA 15.0201 -1.22328 81.9411
CA 3.76636 -9.56021 96.5983
CA 9.17055 0.0499393 81.6337
CA 15.7046 17.1812 68.1729
CA 32.281 -14.8591 36.2611
CA 13.4383 -6.08293 39.5204
CA -3.61507 -9.14955 44.7406
CA 6.04326 18.7543 27.507
CA 3.79407 8.31569 85.6307
CA 15.9973 -17.5742 69.811
CA 22.2511 -23.5471 67.3917
CA 13.1102 5.14188 22.3275
CA 11.7733 0.845695 62.7465
CA -5.55466 16.7512 66.915
CA 17.0288 -10.9334 92.1225
CA 27.0311 -9.77077 81.1183
CA -3.3414 13.8518 82.9862
CA -1.75423 -12.0854 52.0555
CA 18.5919 -8.15903 87.9888
CA 16.9386 -27.5909 68.7649
CA 19.6348 -7.8077 42.155
CA -0.258192 8.06049 55.7613
CA -0.554075 8.87496 69.3591
CA 2.17776 1.97823 64.65
CA -1.18911 1.2534 63.5103
CA 7.04466 3.76092 40.0313
CA 12.3047 7.90358 19.2867
CA 9.22006 5.00285 40.9966
CA -3.4756 -2.65464 60.9507
CA -2.24572 7.66926 68.4337
CA 4.32965 18.0151 15.9712
CA 2.53979 21.007 32.2415
CA 14.2653 0.215713 48.3819
CA 18.3445 16.1193 69.0797
CA 7.19502 -1.96968 89.6367
CA -4.18239 10.6823 73.8278
CA 11.192 8.62505 17.2005
CA 20.4418 13.8286 68.8779
CA 4.48688 -24.0462 31.0613
CA 12.0096 21.2615 41.4565
CA 17.2759 -16.507 60.9611
CA 15.3477 -11.289 81.0711
CA 6.43041 -0.489878 76.9118
CA 4.87715 -3.04556 75.8353
CA 28.9014 -11.6916 50.4488
CA 35.6748 -16.7104 52.3484
CA -8.4437 11.5532 74.6253
CA 37.8627 -9.44223 47.2358
CA 10.1144 -22.0536 51.5288
CA -0.692014 4.25463 62.9079
CA 18.3234 0.132955 46.8065
CA -7.43054 -5.84643 60.035
CA 17.0177 15.56 37.9819
CA -0.593985 14.7837 67.2455
