489

CA -11.3288 11.7163 75.6113
CA 5.73401 -9.75704 38.8837
CA -1.23896 3.92787 80.4868
CA 4.79387 -2.3889 96.9557
CA -0.0475648 9.74894 65.1681
CA 0.752926 10.0551 84.3443
CA 1.40936 -13.7091 29.7655
CA 7.71856 19.9469 40.538
CA 4.21814 -15.32 82.9918
CA 18.3609 22.5438 43.0108
CA 36.4611 -24.7447 38.6374
CA 17.5168 -7.73601 79.1819
CA 1.67262 -5.14043 56.5574
CA 32.9195 -9.09535 40.2924
CA -10.7561 -7.2782 62.2621
CA -3.47866 -13.6668 30.8504
CA -0.309276 17.7763 82.4809
CA 15.3945 18.4929 63.8719
CA 11.9368 -12.1343 89.922
CA 28.3823 -15.4286 55.5868
CA 22.1399 -19.3853 48.6295
CA -11.0893 8.74083 74.7671
CA 8.3739 -2.00624 67.4566
CA 11.9728 9.19783 14.8573
CA 9.12674 8.77915 25.8802
CA 22.0307 -18.4635 54.949
CA -4.81982 -10.7194 31.2912
CA 15.4225 0.28401 81.2499
CA -0.360784 -2.73879 53.3091
CA 40.9874 -20.2974 47.9698
CA -9.67448 13.5528 78.1007
CA 35.2937 -17.3334 41.0653
CA 7.60378 -7.68731 58.2359
CA 26.6859 -16.2772 52.4429
CA 14.8783 -10.4562 70.1268
CA 8.51932 -20.9566 36.2541
CA 5.41847 -11.0629 42.9696
CA 4.01156 9.85314 25.8359
CA 21.7846 -20.4508 63.8193
CA 7.946 -17.4839 82.648
CA 29.56 -18.5047 56.0161
CA 20.7449 13.3849 67.0859
CA 19.5061 16.5576 67.1576
CA 14.7165 -29.331 63.845
CA 1.90018 -19.3814 35.3714
CA -3.54949 20.5218 34.3744
CA -3.82189 13.436 68.2083
CA 39.0402 -23.2498 46.8477
CA 21.3145 -30.1145 54.9852
CA 2.77897 -7.17739 99.4596
CA 31.9941 -26.5609 48.1008
CA 20.3777 -16.0158 44.7777
CA 12.4173 11.9548 66.082
CA 27.1075 -11.2147 49.797
CA 3.09282 -17.9346 35.3391
CA 9.77369 -2.59926 84.3996
CA 0.526945 3.29074 73.5556
CA 3.63911 1.8546 88.9029
CA 7.81094 -5.39711 54.2711
CA 13.1924 0.588549 81.7931
CA 4.7831 28.4158 79.1185
CA 37.3376 -21.1733 38.5421
CA 17.543 -23.7953 67.2087
CA 11.5272 -2.16661 80.7683
CA 32.9357 -10.4927 61.6282
CA 40.8415 -18.4595 51.9028
CA 1.57725 3.07825 44.1524
CA -4.03915 21.8562 31.566
CA 6.88018 -7.44049 52.7527
CA -4.23818 9.47033 28.2839
CA -1.00951 14.5461 12.6895
CA 4.13113 -5.4637 92.0078
CA 30.4828 -13.4036 46.2805
CA 7.19438 -27.3656 40.3383
CA 20.8368 -18.4229 64.0383
CA 9.05928 -6.18601 85.821
CA 37.9014 -24.2166 40.8168
CA 26.7896 -22.0253 59.0557
CA 9.20792 12.502 35.6968
CA 8.51119 18.6761 35.7977
CA 16.3493 28.9658 46.2363
CA 3.30662 -17.5652 87.0814
CA 8.80111 11.6953 19.9804
CA 1.99467 5.47482 84.0325
CA -7.26817 -4.20092 49.5145
CA -15.7019 -7.70242 56.3965
CA -6.7445 14.628 83.1052
CA -12.8667 -8.71645 56.7702
CA 21.6734 -28.3459 69.6132
CA 3.80881 -0.505148 71.2197
CA 35.7262 -9.02581 62.4276
CA 8.75588 13.8436 68.0184
CA 3.17055 21.8274 48.1113
CA 11.3873 3.21679 19.0898
CA 38.9998 -25.6848 41.8118
CA 2.15907 10.0763 66.9305
CA 4.13212 -9.62337 36.6709
CA 40.9573 -16.6638 60.7433
CA 11.4417 12.3151 27.1713
CA 32.5449 -15.6572 40.3859
CA 1.18841 5.36186 18.6022
CA 9.89469 -2.38365 74.9487
CA 15.3241 9.44929 15.3477
CA 15.1103 18.1934 29.51
CA 31.222 -15.4342 57.31
CA 17.5625 -21.433 61.9417
CA -1.53211 -4.47843 96.3503
CA -7.39468 26.3856 34.6921
CA -1.21944 24.5126 80.7279
CA -1.33866 -20.722 38.1597
CA 5.25217 -10.7909 89.9161
CA 39.5973 -26.2563 45.2836
CA 16.2244 -20.2069 64.2493
CA 35.9208 -17.6169 56.0091
CA 16.0659 22.3111 46.3956
CA 1.95798 -9.20493 55.373
CA 23.1965 -24.2397 52.0239
CA 23.4166 -20.4986 60.9001
CA 4.49809 -4.20948 53.179
CA -13.2351 -5.13256 57.0822
CA 11.8921 4.64007 79.5123
CA 5.88086 18.8682 33.3234
CA 7.69604 -9.97637 84.1191
CA 37.6854 -11.2091 38.167
CA 10.5145 12.9252 28.8911
CA 22.315 -24.4267 59.0156
CA 28.7523 -11.92 44.085
CA -4.91319 -1.88629 59.3137
CA -7.54478 -6.3346 40.3435
CA 27.6411 -17.331 51.1267
CA 36.9091 -12.5425 47.6128
CA 15.4786 20.4999 38.6967
CA 10.1718 -13.2667 80.9882
CA 13.1186 10.3766 72.7745
CA 2.63236 21.8335 22.7548
CA 10.5817 10.4493 81.7986
CA 17.5044 -4.4497 39.4014
CA 4.54026 -8.60045 38.1762
CA -9.66619 -3.52714 59.4783
CA 6.08987 -10.3613 85.2444
CA 13.8086 10.815 62.4377
CA 7.14429 26.7948 29.1477
CA 33.7009 -15.8326 42.3215
CA 15.0299 -10.242 43.3009
CA 1.6021 -4.66758 98.3643
CA -10.566 21.1751 27.3463
CA 12.7713 -0.107697 79.7245
CA 33.6029 -20.2651 44.0639
CA 0.628896 -2.91137 40.7521
CA 3.96188 -26.9166 33.8496
CA -1.51109 20.1955 76.5728
CA 23.1452 -22.7843 61.5461
CA 9.225 -12.8588 89.1041
CA -4.82943 14.3709 66.2047
CA 36.5695 -21.6173 42.3389
CA 18.3602 -13.4874 50.3742
CA 2.26497 17.2709 84.2816
CA -9.17173 -6.14191 51.3281
CA 17.7075 -17.1211 47.9716
CA -4.72035 11.5545 71.3694
CA 6.51836 -14.2826 84.6232
CA 19.274 14.4156 69.0753
CA 5.69286 23.5668 24.5768
CA -13.0939 -5.70705 62.6425
CA 18.3281 9.19696 71.8198
CA 20.8199 -20.7553 47.8633
CA -4.45348 11.1215 81.4424
CA 7.56687 24.9347 20.1504
CA 10.4048 -0.00439103 69.6634
CA 28.8165 -17.1307 48.4862
CA 9.13506 -9.62768 47.1396
CA 3.67485 -3.32057 51.5523
CA 6.19733 14.6798 65.2589
CA 14.3278 11.1152 71.3128
CA 37.6767 -21.2546 49.5159
CA 7.6552 -8.37256 46.4445
CA 36.2988 -22.8678 38.2145
CA 22.756 -23.0294 73.8687
CA 0.269416 -19.7691 41.3358
CA 8.83443 -2.62754 44.1923
CA 19.4442 27.1894 43.5431
CA 12.627 -5.29131 44.4092
CA 14.8802 -7.49345 37.9321
CA 3.4338 0.398814 85.5149
CA -0.636798 6.25491 67.7398
CA 10.3823 1.06402 90.0524
CA 21.3845 -28.3195 62.6419
CA 32.7696 -10.9344 48.473
CA 19.6931 -29.7822 64.9799
CA 19.3341 -16.3237 70.3096
CA 7.57353 16.6859 18.0479
CA 17.8688 10.4796 68.7358
CA 8.78538 9.30008 79.7258
CA 6.06114 -26.0732 34.6551
CA -1.11137 -7.27274 36.8959
CA 21.063 -29.0988 57.1609
CA 13.5622 -18.1932 48.2207
CA 19.8083 16.7056 70.0574
CA -2.41974 27.2434 33.3082
CA -5.84661 -10.7796 33.43
CA 20.0905 -21.8169 65.4325
CA 41.1376 -13.2188 57.3809
CA 31.9827 -15.138 44.9102
CA 15.437 7.64006 16.6816
CA 0.249956 25.542 21.2881
CA -7.72315 9.30793 75.4441
CA -11.5971 8.68494 66.0906
CA -3.79718 18.4465 15.4283
CA 13.9939 18.1986 33.9513
CA -7.65132 -10.3043 56.7062
CA 10.6584 10.7189 21.9644
CA 17.5227 -17.6799 54.072
CA 12.0593 7.13362 16.3749
CA 5.21571 -6.72675 54.7885
CA -3.50562 -16.2743 29.1345
CA -1.55749 10.6644 25.1649
CA 13.4838 -8.29152 45.0426
CA -4.99008 19.8155 16.2259
CA 1.90821 18.3423 77.7856
CA 3.69782 -20.3726 38.2448
CA -1.02337 -13.6744 38.2122
CA 8.95493 8.54383 18.5423
CA 1.309 -5.06341 96.3493
CA 10.8893 -30.1307 66.3092
CA 23.7002 -14.9029 46.7173
CA 14.2602 -10.3069 36.3319
CA -2.84424 6.56095 53.7457
CA -1.36426 17.0828 75.3637
CA 2.94722 -6.80345 39.2745
CA 6.89057 0.456182 65.0127
CA 30.1348 -10.6842 57.9886
CA 0.268831 23.5102 33.0533
CA 31.364 -10.4023 44.434
CA -0.451022 17.4641 33.2342
CA 3.06296 16.0252 16.8609
CA 7.88006 -15.3285 36.7616
CA -0.83498 19.8676 80.797
CA 4.28361 22.7948 29.0962
CA 20.7632 -23.4281 69.6592
CA 18.1799 -25.2504 62.7471
CA 7.61427 4.89879 80.318
CA 39.191 -22.1524 40.0585
CA 32.4324 -9.54114 45.6515
CA 24.3265 -13.265 49.9301
CA 15.8011 -1.62374 86.5881
CA 7.35266 10.5198 80.8244
CA -1.12654 -3.58611 75.5599
CA 14.3071 11.4438 37.6511
CA 10.3472 18.1943 17.1806
CA 18.2125 33.3553 45.2949
CA 4.54216 31.0679 76.0362
CA 18.2743 -1.07142 44.0263
CA 17.6285 8.0282 40.5674
CA 29.925 -12.5907 38.2848
CA -13.0954 12.054 73.3317
CA -5.85978 11.3226 77.5428
CA 6.79338 0.521921 89.4475
CA 15.8022 -8.81183 45.1629
CA 38.9404 -16.5158 39.1993
CA 9.301 5.84002 81.0603
CA 10.2688 22.6089 37.4732
CA -2.16486 19.6911 17.4246
CA 8.73989 -2.59502 77.5634
CA 2.99419 -0.776393 73.3139
CA -12.7784 9.23844 69.1308
CA 38.6336 -28.1491 41.5766
CA 7.45811 1.07818 69.0394
CA 4.36299 -9.98209 85.6705
CA -5.9041 18.7027 37.2063
CA -0.0797307 -1.14761 61.6001
CA 2.64424 -3.76852 58.4322
CA 4.02771 -5.93406 59.0125
CA 5.34956 22.1104 21.0637
CA 6.746 -4.47681 52.8411
CA 7.07052 -9.78843 89.435
CA 17.8111 16.427 60.9915
CA 7.0453 -1.47833 74.9586
CA -9.39307 -1.49988 62.0871
CA -0.622753 22.7251 15.6839
CA 5.65934 8.83281 71.5051
CA 10.6153 11.446 73.3412
CA 30.1642 -18.2239 44.6739
CA 42.8707 -16.3298 54.2491
CA -5.50272 24.8564 32.2309
CA 17.7736 -26.7601 54.8469
CA -3.58225 4.10782 46.7051
CA 3.92602 21.9819 26.6825
CA 3.07808 -6.85764 61.6572
CA 6.38412 18.4008 38.5006
CA -6.17259 26.1746 31.0199
CA 20.2912 -9.00957 81.7646
CA 21.4356 -16.9552 65.3008
CA 1.49628 0.989122 73.0943
CA 0.00813605 0.962061 76.3369
CA -2.92808 -13.4541 33.6511
CA -8.7401 16.9099 78.1242
CA 5.5547 -0.426482 70.0449
CA 15.8181 -9.8057 46.8272
CA 33.9834 -19.7379 39.7064
CA 7.42124 -3.27461 65.506
CA 16.5229 17.35 70.2873
CA 2.53614 28.7803 80.1305
CA 32.8132 -12.698 43.888
CA -2.65995 11.1421 20.2795
CA -2.49874 16.4865 69.2111
CA 18.0363 -7.72081 81.2628
CA 11.9981 -25.724 48.839
CA 29.5667 -21.7286 50.8273
CA 6.14173 1.23083 77.3805
CA -3.68707 2.65244 52.3976
CA 5.72399 -11.1164 49.5262
CA 7.71736 15.9767 30.1714
CA -4.31035 3.95775 55.0646
CA 14.7518 13.9737 38.9463
CA 41.8292 -24.0202 46.5422
CA 16.8367 4.56117 43.5479
CA 14.0011 12.7812 81.0319
CA 27.7177 -11.8547 47.454
CA 1.10356 13.0441 28.0339
CA 12.2048 -2.48484 85.0636
CA 17.7799 20.316 43.3189
CA 29.4802 -16.0341 52.5319
CA 21.6462 -28.6129 60.5527
CA 22.0164 -18.3231 44.5329
CA 39.9691 -18.9098 53.7012
CA 8.98949 21.0316 22.7098
CA -3.79555 -9.29605 44.8921
CA -15.91 -5.30941 55.5814
CA 2.07606 12.6311 67.7203
CA 4.37683 -12.6681 79.5681
CA 16.0672 -12.3489 42.5308
CA -9.26895 8.51408 78.9283
CA 4.44362 -11.7426 39.4441
CA 26.8118 -18.362 55.4304
CA 28.946 -9.96833 48.7263
CA -0.920374 -7.60469 33.5497
CA 0.127462 2.65456 64.5657
CA 2.54569 -21.6353 37.4914
CA 1.01884 -5.43754 58.7409
CA 2.78429 22.7798 18.1007
CA 1.86164 -1.52877 53.083
CA 33.8293 -12.8462 50.3681
CA 12.6118 -10.0376 88.7824
CA 40.8412 -15.8035 53.1993
CA 4.72254 -20.7448 36.2312
CA 7.35873 22.597 29.3114
CA 4.24407 -13.0653 85.8178
CA -1.46575 17.1102 71.0408
CA 18.2716 25.2396 45.1051
CA 3.6581 -23.343 38.2544
CA -6.88727 11.4858 84.3044
CA 26.0843 -18.6383 48.2113
CA 6.67217 -8.19229 85.8705
CA -10.0133 -6.79944 59.2207
CA 19.7147 -19.8704 52.1613
CA 20.6232 -27.6495 66.5912
CA 22.3777 -14.9773 44.3389
CA 9.23278 -7.06092 73.9308
CA 6.45912 4.04786 37.8922
CA 7.791 3.45045 89.7376
CA -3.37592 3.48073 57.5271
CA 1.61546 1.95549 77.2585
CA 16.9071 3.18232 48.1527
CA -3.4818 -4.14697 61.052
CA 15.2639 -32.0999 66.3928
CA -8.61272 15.1369 32.9619
CA 14.4619 -3.20982 41.8376
CA 1.63061 -7.79016 53.6782
CA 15.8847 -16.0318 70.52
CA 13.535 15.0945 66.8996
CA 15.146 -6.25869 42.3372
CA -3.98508 -9.11942 39.8509
CA -4.67115 8.20006 66.9814
CA -7.72682 -3.84145 45.4153
CA 16.2097 -6.71346 36.5829
CA 22.9401 -31.1588 65.0326
CA 12.0942 16.5014 66.8574
CA 10.5626 -1.15548 50.1062
CA 13.0054 19.2747 67.5762
CA 12.7693 6.26378 63.3037
CA 6.19347 16.6481 33.7024
CA 23.301 -23.376 63.5884
CA -16.1317 -8.23186 59.4123
CA 35.4513 -10.8107 60.904
CA 5.01886 21.8506 24.7883
CA 17.6555 14.116 60.1455
CA -4.62167 -1.52482 74.1005
CA -6.90612 18.8244 33.7998
CA 8.42325 17.5666 26.6477
CA 17.6232 3.06863 42.2282
CA 12.8788 -10.0854 41.7505
CA 15.9096 10.0344 69.2167
CA 36.846 -9.53416 41.676
CA 6.78775 -3.38755 47.5234
CA 8.97777 20.7389 39.1707
CA -0.796497 11.1139 68.4405
CA 13.221 -3.29933 44.7083
CA 17.8356 -9.7254 42.8974
CA 4.92019 -16.2729 80.9033
CA 10.3911 -14.8839 48.0185
CA 19.726 -9.80306 80.2182
CA 4.17275 2.73645 83.9954
CA 8.43703 9.52311 68.1143
CA 31.5607 -13.6755 41.6351
CA 11.2432 5.78338 19.253
CA 24.1545 -19.0246 63.5182
CA 29.5687 -24.7483 51.2749
CA 17.7883 -13.8979 41.3191
CA 6.55494 -12.2207 39.1812
CA 36.7052 -15.2346 44.0927
CA 0.551892 -5.01304 54.5676
CA 3.6106 16.0453 68.8899
CA 28.3195 -17.3983 58.7663
CA 3.82175 5.47787 19.0188
CA 14.9727 -12.1743 83.3766
CA 25.3705 -16.5268 46.9644
CA 28.947 -13.3434 48.0517
CA 4.79165 7.74069 20.7001
CA -5.68865 0.324239 60.6216
CA 1.33692 1.81861 48.2784
CA 12.1243 8.91548 80.3302
CA 36.8221 -19.5074 37.7766
CA 6.58177 29.8636 77.6697
CA 22.3821 -17.6136 49.5739
CA 34.778 -10.7482 44.3444
CA -9.08692 -2.41168 45.0267
CA -7.05029 12.7981 79.5163
CA 8.8348 20.9244 14.2665
CA 15.215 -0.85491 39.1678
CA 34.5467 -12.5865 40.4531
CA -1.67317 1.47006 48.0819
CA 7.88755 18.1969 29.6184
CA -2.77656 13.4561 63.3734
CA 9.61752 -0.29542 80.4812
CA 12.1269 -8.91042 74.5259
CA 16.7904 -11.8187 70.8643
CA 1.56659 14.4507 26.9282
CA 7.85789 29.5505 78.9541
CA -0.914486 -11.2976 37.6837
CA -11.72 23.1125 27.7747
CA 20.1024 -26.662 68.2651
CA 0.196637 -4.66368 60.9062
CA 4.23927 -1.88181 49.2092
CA 9.8414 -7.65394 42.3278
CA 5.39466 -4.07502 51.1398
CA 22.2658 -4.04126 64.0783
CA 3.46921 14.6159 83.5059
CA -4.79486 8.24334 69.901
CA -5.55466 16.7512 66.915
CA 3.72266 -4.42549 100.618
CA 15.1965 12.936 75.7878
CA 23.8718 -20.8667 45.5025
CA -5.15459 5.61766 76.3334
CA 2.44036 -7.09586 55.8476
CA 16.9386 -27.5909 68.7649
CA 10.0216 -3.2045 66.6686
CA 5.38339 -14.1058 86.948
CA 30.9553 -10.8117 39.81
CA 11.091 -7.3114 45.3122
CA 3.37718 -2.19112 90.6762
CA 7.04466 3.76092 40.0313
CA 12.3047 7.90358 19.2867
CA 3.61698 -8.46536 41.5145
CA -3.02975 3.47612 48.4243
CA 37.0087 -27.4787 49.1184
CA 15.6728 -8.39695 41.8152
CA 7.37758 -3.39612 75.3351
CA 14.2653 0.215713 48.3819
CA 6.43359 -14.1739 88.7228
CA 14.0799 -12.0722 46.5976
CA 8.5011 -6.27093 45.3036
CA 11.192 8.62505 17.2005
CA -8.02891 17.4397 75.2951
CA 27.1242 -15.3059 47.5323
CA 12.0096 21.2615 41.4565
CA 4.63973 -24.7805 39.4422
CA 15.3477 -11.289 81.0711
CA 17.1645 18.064 33.0448
CA 9.57544 7.83394 21.1104
CA 26.5077 -15.5807 49.4507
CA -6.10294 15.8477 76.274
CA 5.29785 -27.4159 37.2644
CA -10.5557 -8.65235 54.9645
CA 2.14866 20.55 19.589
CA -1.78434 5.06764 52.9639
CA 2.52861 2.16447 75.2895
CA -7.43054 -5.84643 60.035
CA 15.6368 7.22537 64.1147
CA 17.4101 -15.2473 74.8999
