489

CA 5.41707 -4.22062 46.4205
CA 4.49431 -9.02507 42.3921
CA 5.49269 -2.15022 61.0757
CA 16.8431 10.4358 41.5445
CA 0.641041 -10.1394 53.5969
CA -0.107738 13.7693 69.6358
CA 19.4319 -19.8267 43.4727
CA -3.32996 -0.381982 54.2352
CA 7.37155 -4.30219 91.5249
CA 3.3647 23.9629 30.9409
CA 4.33973 0.778422 42.4565
CA 5.24411 -0.296029 57.0073
CA 24.4114 -28.8546 66.2133
CA -1.11081 -6.1121 65.4582
CA 8.38314 6.77033 26.8143
CA 7.09655 -11.3624 65.5003
CA 27.1046 -28.2303 56.8113
CA 26.1156 -28.18 62.6474
CA 24.3109 -24.0926 60.7733
CA 8.13405 29.2265 29.2189
CA 30.2515 -21.2257 63.7089
CA -15.7049 -3.19688 56.342
CA 16.1605 -15.7524 73.3063
CA 7.23227 16.8284 65.4907
CA 24.0639 -18.3263 56.8953
CA 29.5661 -10.901 46.3066
CA 10.6351 -6.94463 43.1906
CA 14.4832 -1.77048 63.7022
CA 25.7708 -15.975 60.9956
CA -0.981561 1.37882 72.9503
CA 38.0268 -10.9542 36.8466
CA 21.4692 -27.2623 54.4065
CA 22.6325 3.85016 73.3783
CA 37.2682 -16.3945 54.9456
CA -16.4585 -7.38126 54.8303
CA 9.0505 -20.6617 80.1038
CA 26.3772 2.59009 40.789
CA -11.5423 -1.20434 59.281
CA 18.3015 4.7902 72.3183
CA 7.01309 -9.24416 83.6436
CA 6.63593 -4.49437 59.3703
CA 4.89932 -3.59513 74.6361
CA 6.12269 -27.0173 34.3189
CA -9.968 -7.11078 56.7242
CA 15.3906 3.18103 16.896
CA 6.32484 -5.71115 43.1978
CA 21.8502 23.7901 37.5522
CA 31.8088 -6.30699 49.4437
CA 31.3943 -21.7541 71.6013
CA 5.67689 -15.3789 36.786
CA 14.2982 -29.1843 68.2663
CA 10.5845 -18.0147 37.0652
CA 5.27169 2.28275 68.0501
CA 0.160634 16.7202 21.579
CA 3.09282 -17.9346 35.3391
CA 9.77369 -2.59926 84.3996
CA 5.22435 -5.21411 53.4618
CA -8.21029 0.131435 50.3533
CA 7.81094 -5.39711 54.2711
CA 1.12959 3.97558 53.2802
CA 4.07497 -6.18734 70.5067
CA -15.9767 -5.02368 57.4912
CA 2.76762 -5.20628 73.4797
CA 23.2557 -23.038 67.5878
CA 22.257 -21.4831 63.8712
CA 5.90193 15.6182 88.3116
CA 38.1619 -19.3264 55.1527
CA -6.76806 -0.606598 58.3331
CA 9.3836 27.2538 17.8908
CA 20.6942 29.1731 43.6973
CA -17.7948 5.00976 60.544
CA -9.494 -0.618715 51.7121
CA 34.9752 -13.6732 45.1682
CA 8.91803 -34.8559 33.5142
CA 10.647 21.9612 38.7471
CA 15.3625 -19.8234 83.1411
CA 22.1981 -16.9683 43.9732
CA -6.21433 -10.0006 44.1096
CA 19.607 29.9279 46.3931
CA -3.18564 13.3898 71.4632
CA 16.3493 28.9658 46.2363
CA 1.98198 18.8997 23.8264
CA 6.18648 -9.95113 62.8021
CA 18.1879 -21.8673 51.0145
CA -5.76339 1.72811 58.9487
CA 25.4212 -15.938 94.0527
CA 1.74568 1.61929 75.3469
CA 15.0456 -5.51801 36.088
CA 18.513 -6.38749 80.6023
CA 11.2929 7.82946 25.5157
CA 1.34551 1.10992 56.9349
CA 20.921 -4.36654 46.1019
CA 16.2042 -9.92528 83.2749
CA -10.2868 -0.874867 49.9544
CA 22.3761 6.63261 43.8098
CA 34.0141 -7.77711 53.8217
CA 9.08611 -11.556 48.2017
CA 9.75513 -12.6931 74.8814
CA 15.341 -25.0044 55.276
CA 21.1292 -14.711 88.1499
CA 7.38335 -22.7217 77.4645
CA 32.9934 -9.18428 44.7372
CA 16.6248 -13.2567 66.4965
CA 13.8431 -0.424218 42.5602
CA 21.4023 6.15709 72.2918
CA 8.60709 16.9793 31.4802
CA 31.0343 -23.0995 68.2458
CA 7.52595 26.1595 32.7188
CA 19.5383 -25.5423 44.7125
CA 22.0445 -18.4061 49.1601
CA -1.84034 -11.2082 45.9126
CA 11.0667 -1.19685 51.5202
CA 9.38197 -15.2005 68.7022
CA 20.6148 -3.85876 79.0347
CA 27.1344 -17.9015 57.6709
CA 2.41281 20.8524 17.653
CA 9.87526 -1.4671 47.5415
CA 23.4166 -20.4986 60.9001
CA 19.066 28.49 42.8718
CA 20.2178 12.7577 70.1541
CA -4.65467 -1.38852 59.3937
CA 30.9248 -22.4145 47.8899
CA 15.7587 11.4734 67.1845
CA 6.65833 -10.6474 43.5555
CA -6.5804 -2.58623 46.8226
CA 25.3584 -28.1765 58.3863
CA -2.44767 25.0013 15.3253
CA 5.85181 2.43605 37.0037
CA -7.54478 -6.3346 40.3435
CA 8.12932 14.7343 65.2903
CA 18.2029 -26.3789 67.8512
CA 15.4786 20.4999 38.6967
CA 8.2574 20.7564 17.902
CA -13.1557 -6.71099 57.6751
CA -1.02579 -8.27301 74.6941
CA 0.663763 -12.6533 84.6508
CA 17.2577 17.9406 41.9274
CA 4.54026 -8.60045 38.1762
CA 10.9228 -10.3746 54.0761
CA 16.2648 -3.95317 36.6117
CA -4.65361 10.94 33.7793
CA 13.544 -9.48875 46.9298
CA 8.13449 -9.19362 43.2952
CA 18.288 9.72281 62.8396
CA 20.0126 -23.0099 48.2388
CA 16.2291 4.81705 16.1601
CA 10.5325 -9.30501 76.5507
CA 23.689 -15.0736 90.2533
CA 4.3797 9.25352 80.4561
CA 13.9355 -5.84642 41.6859
CA 16.7175 -15.7567 85.3725
CA 18.032 -3.9838 81.5636
CA 19.1211 -6.20097 40.899
CA 12.3422 -11.3568 75.3282
CA 15.1638 21.3692 42.4942
CA 6.37643 -1.1506 58.8158
CA 32.2291 -22.3204 46.5532
CA -2.34037 -3.92564 64.211
CA 12.6298 -6.35727 43.0429
CA -12.0316 -6.61694 55.5407
CA 3.49705 0.704179 58.0285
CA 9.23214 -10.2055 77.4609
CA 25.9682 17.3383 42.6188
CA -5.31245 21.2327 69.1171
CA 8.13196 23.1248 18.2005
CA 2.44827 2.27855 54.2511
CA -11.7052 17.4613 67.9939
CA 17.7459 -28.7846 66.6484
CA 17.2229 -9.52199 89.046
CA -3.00149 0.605701 69.2469
CA -14.7022 -5.93823 54.4819
CA -9.86224 4.5206 58.177
CA 6.35147 -11.8627 59.0931
CA 9.69222 -17.9777 65.2631
CA 1.99125 -10.4005 73.9127
CA -9.37921 0.735749 44.1738
CA -4.62146 3.89451 51.1114
CA 16.4887 -6.4037 82.0987
CA 23.1111 -5.23496 81.6516
CA 35.3009 -21.8833 52.6789
CA 33.4924 -11.2501 48.7802
CA 19.9553 10.1626 44.276
CA -2.15552 18.0317 83.0877
CA -18.467 6.65756 61.7771
CA 13.4474 -13.9811 84.3105
CA 10.3823 1.06402 90.0524
CA 16.3264 -34.0469 51.9904
CA 6.94297 -13.5711 82.8166
CA -20.2201 5.4226 57.8426
CA 33.1301 -16.4195 53.2065
CA 7.39481 -11.6603 53.3371
CA 7.23314 -21.8368 37.4787
CA 5.39553 6.99023 60.6734
CA 19.5469 -19.7824 64.8058
CA 5.61162 -15.2492 86.1994
CA 5.90934 19.8584 20.4281
CA 9.71783 -8.80668 94.8998
CA 21.4421 -22.9984 44.1121
CA 5.32894 -2.45502 95.1591
CA 18.6281 -25.1286 65.7815
CA 10.3294 -6.92038 47.8217
CA 9.26131 11.6399 64.9708
CA 5.33398 -9.5135 33.9836
CA 32.0169 -20.3913 48.2026
CA 19.2828 21.7141 37.5979
CA 33.9127 -22.6654 66.2331
CA 9.02569 7.83685 33.3006
CA -0.677024 23.4359 19.2518
CA 42.4083 -17.7412 55.1709
CA 20.0102 -19.6938 66.7592
CA 10.6584 10.7189 21.9644
CA 18.3581 -0.703478 65.9999
CA 1.76512 -6.4009 62.6841
CA -1.32688 3.37893 77.4924
CA -1.79464 11.1862 32.014
CA 32.7097 -25.0157 50.5876
CA 4.27544 10.5457 70.2951
CA 8.46228 -2.0665 63.6345
CA 6.37478 5.63008 82.4572
CA 2.43227 29.4731 83.9137
CA 7.96285 19.0088 18.7625
CA -2.52392 -5.11131 76.8362
CA 20.8377 -13.3053 61.4375
CA -15.0709 -1.68087 61.0311
CA 15.2582 -14.9978 52.3521
CA 10.8045 -14.3376 64.7391
CA -9.65129 -4.86718 58.5985
CA 19.624 -13.6109 70.5092
CA 2.15398 -12.6929 38.6669
CA 12.9747 -8.01493 85.227
CA -0.84312 -12.9074 82.2327
CA 8.52351 -12.1453 76.8868
CA 6.78695 -1.86263 49.7095
CA 5.86284 -5.52842 98.4102
CA 20.0721 16.8387 41.6886
CA 7.95803 18.1957 24.8632
CA 29.16 -20.1131 70.7808
CA 7.48502 4.05798 63.3299
CA 11.8286 -9.40241 43.535
CA 18.1799 -25.2504 62.7471
CA 13.5414 5.75144 35.5075
CA 7.71343 -8.82911 67.5592
CA 18.1228 1.74065 45.5308
CA 11.7885 -11.5512 79.6729
CA 6.84621 -32.1179 36.2422
CA -0.923688 7.25062 62.9163
CA 19.6682 -15.5047 92.2368
CA 14.3071 11.4438 37.6511
CA 19.1785 -20.9881 53.4988
CA 31.2077 -11.3981 42.4894
CA 22.0982 13.0412 68.3275
CA 18.7263 8.78066 73.2446
CA 21.5313 2.42151 41.8221
CA 8.08483 27.272 20.8376
CA 14.9341 -20.2588 73.808
CA 17.673 -18.4329 55.5681
CA 6.12004 -20.028 32.6656
CA 5.63554 12.0018 86.0718
CA -8.41977 -12.2336 54.0391
CA 9.301 5.84002 81.0603
CA 16.3295 24.0123 45.5069
CA -2.16486 19.6911 17.4246
CA 11.735 -16.4335 82.3336
CA 29.1498 -17.4414 55.5659
CA 15.8789 8.40178 38.8473
CA 12.2433 -33.0158 52.6572
CA 11.796 -30.4357 49.0626
CA 13.5525 -4.11894 36.0065
CA -9.96279 -2.58432 44.7184
CA 7.25905 -8.85591 51.744
CA 5.54123 -1.10949 73.1766
CA 19.8726 -8.53649 41.0295
CA 6.91059 -17.612 36.2375
CA 9.14955 -6.76282 80.9134
CA 22.4651 -12.8844 90.4006
CA 17.8111 16.427 60.9915
CA 14.4072 -11.9623 46.1143
CA 6.69384 -13.774 49.0728
CA 5.25926 -6.32909 83.7241
CA 5.65934 8.83281 71.5051
CA 13.8765 -10.0275 49.1899
CA 3.28589 -12.3066 35.2608
CA 13.4696 -6.77886 47.2122
CA 14.1655 -9.8146 91.0611
CA 13.0034 22.4733 19.4957
CA -3.58225 4.10782 46.7051
CA 23.4191 -29.562 67.6074
CA 23.4969 20.8651 42.4603
CA 3.14919 -3.1246 63.4314
CA 25.8435 -21.0702 55.6595
CA 20.9057 -19.4017 50.6981
CA 0.980284 10.6299 84.8251
CA 4.31808 -14.255 31.0059
CA 9.85935 -4.05138 54.3002
CA -0.433784 17.9733 69.1584
CA 13.1596 8.29312 17.9272
CA 32.8856 -8.84513 48.3231
CA 8.61089 -12.5605 86.3951
CA 10.6208 14.268 64.4411
CA -11.0239 6.21291 75.8437
CA -10.723 -7.0076 42.2084
CA -5.97899 -11.9369 53.1961
CA 18.8161 1.42304 16.05
CA 8.7536 20.3003 21.1357
CA -8.94486 -4.2816 61.2454
CA 20.884 -3.52127 85.4507
CA 3.66807 8.0346 62.1412
CA 15.8326 -5.40403 90.0811
CA 9.82996 -20.0536 31.1965
CA 7.59735 0.842758 37.7296
CA 13.4786 -34.2229 50.591
CA 20.4303 -3.31 82.2113
CA 14.8055 14.3144 62.5686
CA -6.81169 -2.19491 55.3693
CA 14.6485 4.42361 84.9344
CA 14.8694 2.13933 83.1746
CA 1.47705 6.80878 61.9958
CA 9.89799 11.1161 70.5115
CA 20.1441 23.467 40.9865
CA -0.130879 17.7434 84.425
CA 17.7799 20.316 43.3189
CA 9.22293 -8.18682 69.0983
CA 14.0432 -3.08555 86.5642
CA 10.106 -4.998 51.6323
CA 18.2329 -17.1172 71.8284
CA 7.22994 -6.31669 92.5494
CA 11.6556 6.60014 73.2259
CA 9.09733 1.18537 46.2026
CA 20.4721 -7.62296 88.7107
CA 8.38779 -10.6491 61.2251
CA -2.0727 -6.06539 60.6449
CA 3.43426 2.73626 40.9609
CA 7.05173 -1.4683 44.2465
CA 20.1817 -27.5311 64.3442
CA 16.5356 -10.3683 45.3031
CA 2.60776 -13.3149 88.3487
CA 38.9956 -12.3911 44.761
CA 10.38 14.5229 21.418
CA 1.01884 -5.43754 58.7409
CA 18.9065 16.4823 45.3471
CA 12.3872 -1.12399 66.7159
CA -7.82376 -1.16702 46.8344
CA 20.2196 -17.6494 51.4095
CA 20.6233 -30.1315 55.7191
CA 14.3867 20.3329 66.7106
CA -14.7305 -3.31777 62.0681
CA 21.2167 -15.6493 55.3842
CA 21.4512 -10.722 87.1425
CA 2.60528 -4.82748 60.7492
CA 25.8085 -36.7518 59.3943
CA 22.3486 1.65948 15.0039
CA 8.54402 7.35732 67.709
CA 5.62135 -11.622 70.6162
CA 19.4531 18.2171 39.6286
CA 1.66215 -13.6437 34.7408
CA 10.3446 -13.2188 69.4359
CA 22.3777 -14.9773 44.3389
CA 14.9282 -5.84423 62.7157
CA -7.36945 -6.65922 61.0655
CA -3.62125 -10.0654 68.0456
CA 12.7362 -14.2987 49.5544
CA 1.61546 1.95549 77.2585
CA 8.38058 -7.3697 51.3491
CA 17.1205 -9.20768 41.0638
CA -3.9421 10.5061 71.7878
CA -7.67536 16.5604 66.2588
CA -10.4434 -8.46876 58.4297
CA 6.29235 0.396233 62.739
CA 37.1499 -14.4766 47.5349
CA 5.26378 -9.17881 60.9934
CA 7.32691 5.26249 86.3663
CA -5.78085 -7.42234 36.0323
CA 24.352 -23.2694 63.54
CA -3.69921 11.7664 68.0751
CA 20.7297 -4.73348 36.1498
CA 4.66109 10.5049 63.0216
CA 12.0942 16.5014 66.8574
CA 12.51 -4.41888 43.9666
CA 14.4675 9.81931 19.6757
CA 11.7008 -7.9626 40.9658
CA 3.97073 15.0102 86.3951
CA 19.7823 -9.80904 43.089
CA -1.46328 15.0249 68.8034
CA 9.59202 -2.37538 69.2334
CA 22.9855 -25.189 49.0626
CA 21.8307 -12.3653 88.1655
CA 39.7172 -13.2282 50.6783
CA 10.2978 -11.9966 84.4112
CA 26.6784 -27.814 60.9539
CA 11.785 -19.3408 82.0802
CA 26.0304 -25.9392 59.7398
CA 18.5465 -12.0413 68.2486
CA 2.22131 -11.2434 82.6481
CA 6.78775 -3.38755 47.5234
CA 8.97777 20.7389 39.1707
CA 42.0813 -25.7891 44.9093
CA 20.0299 7.05225 43.4866
CA 29.3422 -23.7353 59.5654
CA -2.34534 14.4489 64.2334
CA 23.1891 -12.5873 62.1053
CA 10.1624 10.6146 66.8399
CA 6.44598 -8.50077 41.7875
CA 12.104 -0.809708 49.1973
CA -0.73568 -9.05254 71.7881
CA 10.5495 -1.92585 73.8044
CA 0.0848507 13.5213 85.137
CA 18.5099 -26.4724 70.2073
CA 17.8844 -5.75184 78.3203
CA 21.9098 -19.5089 44.8309
CA -4.07582 -2.3539 55.5362
CA 16.9382 -23.5859 65.6606
CA 11.0869 1.85139 80.9463
CA 13.9934 -15.122 44.9567
CA 2.31042 24.9599 38.2056
CA 14.9727 -12.1743 83.3766
CA 13.0829 19.1527 62.8839
CA -8.90506 2.85875 61.3965
CA 1.82096 14.4923 24.2712
CA 33.3979 -7.13814 55.6592
CA 11.934 -0.701454 76.6316
CA -12.8643 3.31922 48.7411
CA 8.08578 5.94687 30.1695
CA 19.8692 4.09821 38.3838
CA 14.8447 5.43251 13.9573
CA 6.78041 -10.1773 45.3347
CA -5.37016 15.1097 82.6949
CA 3.1327 -5.0065 37.8457
CA 2.0024 15.2099 84.0931
CA -17.6249 3.65888 62.633
CA -5.21496 1.78957 47.6271
CA -3.00693 16.7369 64.6407
CA -5.07933 3.60674 58.8277
CA 9.16043 34.5809 30.7153
CA 5.4536 -2.31627 63.0168
CA 6.42151 -12.4595 84.5212
CA 16.7904 -11.8187 70.8643
CA 4.8554 21.7447 19.1042
CA 4.4354 -11.9427 44.928
CA 17.1948 19.4634 38.8439
CA 5.72458 -9.69533 40.1438
CA 5.28673 19.6146 29.3066
CA 2.2312 -10.1431 42.0693
CA 8.33148 11.9751 62.5884
CA 8.19219 -8.68177 77.2392
CA 5.39466 -4.07502 51.1398
CA 16.1118 2.18382 18.4621
CA 20.4156 -5.80263 83.6539
CA 9.46523 -11.4121 68.4621
CA 2.98916 2.32858 69.4218
CA 6.19474 -9.63158 81.9285
CA 15.1965 12.936 75.7878
CA 23.8718 -20.8667 45.5025
CA 8.51949 16.8602 35.3108
CA -12.5977 3.62191 57.541
CA 16.9386 -27.5909 68.7649
CA 12.4267 6.3402 65.5035
CA 4.51544 13.1522 84.7099
CA 30.9553 -10.8117 39.81
CA 9.70175 -7.75889 91.5107
CA 10.0732 -6.22684 66.6061
CA 8.74971 30.1258 33.6609
CA 15.5301 -17.8604 69.7383
CA 6.88527 -10.5202 72.521
CA 18.7673 -9.6381 87.49
CA 21.2692 -25.3668 65.6689
CA -0.360802 10.7346 69.908
CA 7.37758 -3.39612 75.3351
CA 24.2097 -11.8187 86.3855
CA 6.43359 -14.1739 88.7228
CA 18.317 17.1481 47.3307
CA 30.9148 -21.2617 43.3583
CA 10.4253 -10.1731 79.5113
CA 2.57071 28.7903 20.6495
CA 17.0579 16.2288 41.2424
CA -6.64945 -6.4623 42.7411
CA 4.63973 -24.7805 39.4422
CA 33.2267 -20.3587 61.8142
CA 17.0319 -29.0504 54.3699
CA -4.76309 -4.6769 64.0956
CA 6.55399 -1.08792 42.4666
CA 19.07 6.93742 40.5637
CA 17.5602 -16.1779 45.2936
CA 30.6381 -13.5746 48.9042
CA 2.14866 20.55 19.589
CA 41.0751 -14.0711 40.9957
CA 16.0071 13.1311 71.8556
CA 17.8152 6.62293 71.2524
CA 15.6368 7.22537 64.1147
CA 11.181 -12.4443 53.7937
