489

CA 1.09646 -0.0483468 67.2656
CA 7.74839 -21.3123 67.3874
CA -9.70511 -3.56295 51.8327
CA 19.3593 -3.53409 14.0143
CA -9.30525 1.90982 64.1043
CA 1.00855 -3.22872 87.1321
CA 14.0121 19.0521 60.3188
CA 1.43259 -6.61689 62.3953
CA 2.51004 -16.5231 75.8791
CA 28.0766 -16.7544 53.9373
CA 8.67058 -1.68771 54.4285
CA -21.9755 -6.0787 53.9426
CA 10.5993 -13.7596 67.0923
CA 10.8444 4.90339 66.8872
CA -0.0832632 -0.675284 75.9239
CA 8.15856 -16.3806 63.7268
CA -2.80857 17.3204 19.9645
CA -1.77982 21.8123 19.6029
CA -0.950558 -10.5356 89.7258
CA -7.37132 -5.46981 52.6827
CA 13.9308 -28.0646 60.759
CA 2.45029 9.789 64.487
CA 4.83317 -15.8232 62.0527
CA 19.9638 -9.45677 81.528
CA -9.05726 -0.132522 45.4989
CA 32.6938 -20.4848 52.0115
CA -21.0793 -6.57102 62.7013
CA 12.6008 11.6482 67.791
CA 9.37169 -4.99834 66.446
CA -5.91853 -1.79164 57.6622
CA 4.82571 6.89925 84.8267
CA 14.5724 7.01421 80.8725
CA 1.51307 -8.65053 73.7903
CA -24.3373 4.6707 60.8959
CA -9.00205 12.8787 65.0927
CA 3.84464 -15.1681 59.4236
CA 23.816 -25.8336 43.3689
CA 15.8166 -4.69785 27.9152
CA 5.70813 -0.142166 55.7739
CA 12.1892 -27.5299 35.3113
CA 11.2543 -18.8824 67.931
CA 16.0921 -16.5276 74.4386
CA -4.59932 3.96929 78.2829
CA 29.3763 -24.5261 66.8461
CA -7.78529 -0.740577 59.8868
CA 7.62409 -21.3687 37.0987
CA 10.4815 2.86782 60.2107
CA 9.7285 -12.6976 70.8786
CA 14.2372 6.81184 65.9576
CA 3.70533 -4.37219 55.4204
CA 16.198 -11.58 83.0305
CA 24.8486 -13.3539 83.8656
CA 10.5841 -19.0067 83.9685
CA 6.06149 -6.92688 93.873
CA -18.537 6.32768 65.444
CA 9.12012 0.532607 63.056
CA 5.28111 7.54595 50.2405
CA 11.193 4.43035 62.0006
CA 21.1465 16.301 65.384
CA 6.33476 -9.16861 45.3427
CA 26.0938 -25.627 66.8625
CA 18.5725 -29.0272 45.1275
CA 2.76762 -5.20628 73.4797
CA 24.7259 -10.8456 47.7122
CA 10.9715 -16.78 70.4908
CA 27.7666 -19.596 55.0337
CA 3.76587 -4.973 85.304
CA -19.0684 -3.07377 54.8144
CA 20.1789 -10.0788 48.0939
CA 19.1856 -20.1321 53.1872
CA 12.7561 -13.9362 75.0329
CA 4.05093 -26.0689 36.5656
CA 5.12448 -11.8922 83.8508
CA 22.4907 -20.8622 44.2888
CA 7.204 16.3469 29.8111
CA 2.51369 7.16396 77.6116
CA -10.7356 1.54698 62.4967
CA 14.6763 1.27964 19.2259
CA 4.41439 8.32896 72.5502
CA -2.15889 20.0565 14.917
CA 8.16724 6.34318 23.5538
CA -11.0224 11.1382 63.9061
CA 3.80562 -11.4209 90.2915
CA 11.5343 12.0979 23.0854
CA 9.4522 -6.11017 64.9077
CA 8.2225 -17.9756 38.6936
CA 13.5597 -9.1944 83.1204
CA 15.0456 -5.51801 36.088
CA -5.61077 5.18231 44.2243
CA 12.4157 -9.04731 46.9739
CA 1.63096 16.2845 72.0367
CA 26.8932 -27.4275 66.6107
CA 12.6457 11.3449 26.9368
CA 5.65071 -17.814 57.7554
CA -3.21525 -3.73491 55.7637
CA 11.5874 -2.55034 87.7845
CA 14.2503 17.9474 50.5001
CA 3.27778 10.1403 87.1932
CA 16.2687 4.66512 63.7986
CA 4.86501 5.13897 53.0459
CA -0.944389 -9.66233 74.1755
CA 15.3907 21.5572 37.6855
CA 10.8485 -14.0126 73.091
CA 24.3293 -8.70349 85.0526
CA 14.7042 -1.70904 56.3947
CA 12.5909 -16.6112 72.1706
CA 17.5546 19.744 38.0931
CA -1.24157 -3.19994 86.4783
CA 0.582512 -3.1609 82.9738
CA 3.10114 -12.1675 63.3159
CA 3.82847 5.77621 77.0328
CA 1.24887 12.5833 19.2807
CA 4.45784 10.8971 72.9405
CA -22.571 2.57407 64.8843
CA 13.9165 -12.5065 71.2035
CA 14.7863 4.40098 58.6887
CA 18.0135 -1.05243 17.6629
CA 2.13547 -8.87762 91.9575
CA 13.5903 23.7395 19.5217
CA 24.9894 -21.6315 58.3743
CA -10.7897 3.92733 64.0575
CA 12.5183 -4.65744 39.8395
CA -3.54546 -10.2893 64.6452
CA 14.662 -6.06652 56.6233
CA 3.95952 3.96226 57.4381
CA 8.20374 5.98039 51.2917
CA 12.0136 -6.8444 72.089
CA -20.6764 2.54563 62.9973
CA -5.85998 -0.300947 78.8464
CA 26.0474 -16.3543 56.0415
CA 16.4127 -2.83473 48.5277
CA -14.3344 0.347665 60.4196
CA 8.2574 20.7564 17.902
CA 11.0027 10.2026 20.1563
CA 0.378076 8.42998 80.5935
CA 3.68899 -7.70512 41.6151
CA 30.9616 -11.4049 50.0974
CA -8.72193 10.6543 73.7421
CA 1.94795 5.70401 73.7551
CA 13.9882 -2.93127 53.3405
CA 10.9342 8.33206 18.5095
CA 13.5133 14.8513 64.8058
CA 9.6473 -2.75494 52.3211
CA -18.3912 3.08462 64.8014
CA 25.9709 -14.1628 50.8311
CA -1.09427 7.07355 77.0794
CA -4.905 6.81474 80.3616
CA 5.53859 0.948079 59.4839
CA 17.0636 4.59684 72.5174
CA 14.4629 -17.9539 72.5728
CA 6.03128 -24.6826 37.6711
CA -15.6693 17.0151 54.2105
CA -13.1166 -2.95201 48.673
CA -3.27658 11.5296 63.9922
CA 10.0017 13.7066 75.4924
CA -9.28461 6.35305 68.1207
CA 0.32233 8.80449 76.0989
CA 15.7845 -13.2554 70.8748
CA 11.6487 13.1597 37.2013
CA 2.6262 6.03532 79.9115
CA 6.90982 -13.9062 36.1528
CA 33.2654 -17.4734 49.0981
CA 18.1089 -5.4633 27.7691
CA 25.5089 -13.7576 52.5833
CA 12.6706 7.70789 28.2743
CA -10.7992 6.19534 60.2184
CA 10.027 -5.29362 56.7076
CA 9.62168 -10.0576 75.5129
CA -19.965 6.07411 62.778
CA 4.84908 -10.229 85.107
CA 15.8489 5.47609 74.5797
CA 9.68332 -5.4544 94.712
CA 15.0885 -7.02621 68.3566
CA 8.80211 -19.1954 69.6744
CA -9.18914 -3.68544 49.51
CA 13.425 -29.0881 71.7241
CA -0.638373 9.30301 64.2094
CA 20.1958 -4.53042 43.1683
CA -5.27653 0.497039 63.2124
CA 26.5404 1.41931 41.4007
CA 13.5397 21.5655 36.2007
CA -0.380724 -17.3077 56.1617
CA 7.01022 16.2853 26.1669
CA 17.9499 -12.8743 50.4663
CA 5.96271 11.0028 96.3587
CA 20.7925 -2.31779 31.7326
CA 15.2667 -13.4461 85.7404
CA -0.808898 -6.74264 76.416
CA 27.3159 -8.65156 49.3651
CA 21.7323 -1.87168 82.6054
CA -23.1952 -5.20223 55.0138
CA 28.428 -24.7515 58.3534
CA 9.2102 -1.47139 61.0669
CA 7.02543 -9.41187 65.0611
CA 4.06476 8.20557 96.0359
CA 9.26463 -3.18282 96.3997
CA 18.008 11.4036 18.7942
CA 13.2275 -12.2021 46.4256
CA 0.449045 2.45357 55.9185
CA 9.99217 -0.06668 56.9346
CA -2.21397 11.0024 83.6861
CA 7.52025 0.710225 55.9718
CA 2.20079 8.15328 80.4993
CA 14.1332 19.5586 40.4877
CA 15.4242 20.9917 70.7947
CA 21.083 -11.903 86.5813
CA 1.28508 20.408 15.4431
CA -12.5907 -3.50737 57.0327
CA 4.82978 10.1794 94.3756
CA -3.16896 -7.06744 86.5552
CA 3.89658 20.4284 16.2613
CA 0.281201 -3.49598 91.5571
CA 35.5287 -15.8589 43.5355
CA 14.7227 -3.22178 23.1928
CA -12.4524 4.77108 60.2306
CA 12.063 -17.5053 81.653
CA 1.68825 11.5633 65.628
CA 0.00324486 -2.11845 77.2181
CA 22.3414 -0.0431484 43.1102
CA 17.2573 -27.7426 60.0968
CA 12.063 23.4278 23.1581
CA 31.3911 -15.5188 45.3684
CA -4.32981 -7.42917 56.3772
CA 7.02068 18.7257 39.8167
CA 8.91706 -9.40339 44.8811
CA 4.7368 -16.7622 68.0719
CA 8.33985 -14.2161 66.4513
CA 4.08527 10.2627 21.7899
CA 10.8023 -32.0212 65.0761
CA 21.793 -29.1398 64.9143
CA -2.59004 4.3167 78.4716
CA 14.287 -0.362459 80.5616
CA 11.2774 20.2349 36.3249
CA -17.223 3.40619 61.4156
CA 7.12695 -1.06495 59.8358
CA 24.5193 -18.9127 55.5945
CA 9.19526 -5.12261 36.6503
CA -0.960403 -6.10824 89.8125
CA -1.61811 5.7692 50.9844
CA 4.71083 -23.7014 71.2648
CA 3.90818 10.8683 91.6434
CA 32.6731 -25.7077 49.6946
CA 12.8902 24.1118 39.1911
CA 9.95819 7.36698 23.4965
CA 5.03184 12.959 88.1449
CA -10.4859 -3.213 77.5926
CA 12.9499 -28.7594 68.9937
CA 9.77429 -17.5803 74.1087
CA 6.64569 14.1552 16.2763
CA -3.82306 17.8252 18.4069
CA -0.303215 18.747 16.1946
CA -4.3169 -0.631687 64.4925
CA 37.4688 -21.6086 51.3913
CA 8.85495 -22.227 70.1903
CA -0.164961 -1.22946 79.7065
CA 4.05949 -3.66052 59.0335
CA 10.4139 -12.7361 57.2685
CA 14.0253 5.79285 75.7536
CA 4.33063 2.62867 54.506
CA 8.21151 -13.6327 72.6717
CA 15.7732 2.23418 61.178
CA 9.47217 -13.4412 59.1185
CA 4.36335 15.4168 11.9456
CA 14.4827 13.1324 16.9906
CA 10.2296 -27.6207 69.0676
CA 8.18193 11.356 83.2061
CA 8.61695 1.1561 67.0071
CA 7.39493 19.1481 20.7287
CA 4.57842 -12.4362 40.538
CA -2.31436 17.8494 64.1558
CA 11.7142 2.10312 62.873
CA 14.5093 -33.3233 65.0556
CA 9.77287 10.8583 21.9074
CA 13.8917 18.5517 68.6421
CA 9.46523 -8.29486 40.4346
CA 32.058 -15.3745 52.524
CA 11.8054 9.89711 73.0775
CA -13.3494 14.7154 63.5876
CA 7.48299 -27.3958 37.2518
CA -1.29536 13.4796 60.5052
CA 10.8309 6.14757 16.9283
CA 15.2175 18.0855 62.1054
CA 10.0537 -15.697 68.9227
CA 19.1091 -4.86518 79.4896
CA -5.70123 17.0267 63.4527
CA 26.7816 -27.5635 62.9907
CA 9.08842 9.65188 73.3189
CA 13.6649 -11.4869 50.0556
CA 7.8296 -15.7797 73.9421
CA 17.338 21.3656 71.6026
CA 6.59404 -8.77074 53.2637
CA 24.6349 -28.7149 63.1483
CA -12.807 -3.34474 53.6189
CA -8.68304 10.9951 66.0117
CA 9.10107 16.3712 44.34
CA 7.15644 -11.0764 81.4729
CA 12.0141 -4.64662 55.6187
CA 10.4045 -8.85128 49.197
CA 10.5619 -23.7396 66.8676
CA 1.12521 9.44007 93.6885
CA 4.6979 -31.819 36.6357
CA 4.87737 23.713 20.768
CA 18.4738 1.17742 88.3205
CA -14.123 15.2694 58.8478
CA 26.2625 -21.0198 51.3423
CA 6.70889 -12.3639 41.7437
CA 9.92444 10.7244 36.0095
CA 20.0104 -19.3844 75.1604
CA 35.281 -10.6058 54.2706
CA -16.8496 -5.58219 45.9541
CA 11.4242 5.23415 21.1153
CA -2.43377 -5.47918 52.1083
CA -4.29084 -8.76714 54.6472
CA 21.5151 -1.49859 86.1249
CA 6.45719 7.37356 51.7251
CA -7.05034 3.22143 41.0634
CA 5.10309 3.31619 66.5664
CA -14.4442 0.825268 57.7393
CA 34.3905 -16.8199 40.6263
CA 12.2965 6.72766 24.6346
CA 9.03128 -20.2195 33.4004
CA 5.29911 9.37808 42.7953
CA 11.4574 -3.16211 31.3361
CA 19.185 15.9456 65.1102
CA 9.64883 22.1143 19.2036
CA 6.32218 -6.48096 37.0032
CA 10.2153 11.2685 15.3836
CA 2.07775 -0.512223 61.3781
CA -4.95266 -2.83996 77.4454
CA 17.3205 -12.5255 43.611
CA 15.9058 -25.4477 71.439
CA 1.96333 18.6425 25.0963
CA 10.5222 9.39352 29.2098
CA 9.16189 -24.9009 68.2445
CA 12.889 -15.2406 55.2772
CA 8.69135 -4.89875 91.9733
CA 34.9162 -7.89485 49.6316
CA 13.804 4.37021 64.9431
CA 5.153 -9.32554 63.8679
CA 12.6428 10.4763 28.9799
CA 16.9625 -13.216 46.7956
CA 5.61905 10.5088 79.6418
CA -1.3913 18.7179 19.5092
CA 24.2258 -16.5838 54.1944
CA 1.36702 15.7664 19.1061
CA 5.91908 -8.50197 84.6741
CA 0.161419 -18.2184 59.1751
CA -10.0601 -10.4665 61.4459
CA 10.7259 -17.6433 58.5072
CA 1.26318 -35.5161 38.3355
CA 9.04433 -1.86444 58.0651
CA 13.2323 -6.79598 74.6076
CA 0.952145 -8.66114 85.5599
CA -8.27344 -7.1969 58.9045
CA 15.3693 -3.62001 55.6958
CA 3.32878 8.76762 88.3638
CA 18.16 9.03642 66.2675
CA 15.5039 19.7268 67.1471
CA 13.9996 -9.76621 86.0882
CA 0.614367 -9.04717 45.7901
CA 2.47738 13.9188 23.3607
CA -17.1673 -1.31537 54.2331
CA 7.47886 -9.31657 82.7576
CA 10.0127 5.68459 75.3387
CA 11.9217 -12.9373 82.5507
CA 13.5565 11.9432 75.5962
CA -7.36175 14.1958 63.7525
CA 6.41942 3.54791 88.6891
CA 16.7265 -12.4181 67.3577
CA 4.31224 -15.4226 76.8178
CA 8.91618 -5.81022 87.7232
CA 3.59796 24.5299 18.3256
CA 10.1749 -1.78442 19.9994
CA 8.18987 -18.3872 34.4478
CA -20.195 3.7858 61.5946
CA 8.80469 12.9726 31.7586
CA 2.72321 3.41926 76.4858
CA 5.69028 -9.66376 89.5696
CA 13.0483 -15.8501 68.843
CA 4.103 6.07766 67.8199
CA -9.52974 -5.67011 82.054
CA 18.4188 -5.70829 31.8079
CA 6.50632 3.47608 79.6201
CA 10.5869 -28.9317 61.2456
CA -0.384588 -0.916955 86.4274
CA -11.1291 13.27 61.7397
CA 22.9723 -31.9737 47.9429
CA 6.13096 9.93747 44.3213
CA 16.2032 -11.2179 51.1909
CA -1.0398 15.4437 62.7326
CA 22.5568 -29.455 47.1307
CA -7.36203 14.2033 65.6496
CA 5.4962 13.7756 14.0254
CA 11.3586 -1.35048 67.2267
CA -1.44043 6.66498 54.7182
CA 8.35132 9.49547 75.4363
CA 3.3636 -4.57831 96.0178
CA -0.13062 -15.18 55.7284
CA 35.3858 -20.365 51.4041
CA 18.1209 5.75798 62.3378
CA 6.09634 -14.8646 40.671
CA 8.31587 -0.118114 58.8135
CA -7.4995 -3.0965 78.413
CA 13.2729 16.6788 36.2339
CA 34.6841 -21.7322 50.2939
CA 25.8162 -12.4525 47.104
CA 0.540502 13.7246 67.0118
CA 6.08804 -15.5971 71.315
CA 9.94078 14.5842 37.9111
CA 22.3004 -8.02048 84.5049
CA 18.5679 -8.55971 41.8058
CA 14.5325 4.06904 60.5611
CA 17.4288 -10.4064 26.4174
CA 4.73711 21.8582 17.5122
CA 8.86693 -14.1552 35.7558
CA -0.648797 -4.69374 77.691
CA 20.3989 -15.8116 25.1508
CA -11.1299 0.395679 51.4787
CA -0.932939 10.2772 62.5414
CA 11.4621 14.436 20.681
CA 14.7744 25.0225 69.7589
CA 9.9749 -8.15086 58.0524
CA 1.62399 -11.8515 90.9382
CA 22.91 -13.9997 84.6994
CA 10.4619 5.03527 88.513
CA 9.54488 -18.1105 76.3178
CA 20.3834 -8.18925 29.1722
CA 16.5942 16.8538 48.6868
CA 11.6224 3.30912 17.9814
CA 17.2739 -1.81819 87.6549
CA 16.3146 6.40522 62.7474
CA 0.33014 -11.4358 44.3275
CA -7.17705 14.5782 68.112
CA 12.9149 -16.907 58.0896
CA 11.1994 19.8891 40.3908
CA 17.3023 19.2628 64.877
CA 4.99225 -16.5298 74.7457
CA -22.4935 7.42811 60.7567
CA 15.915 17.0877 63.9767
CA 1.30056 20.0942 18.903
CA 2.91335 -1.45734 55.682
CA 9.62313 -20.1952 35.6921
CA 16.9722 -2.35723 79.2955
CA 10.5737 0.705674 77.9421
CA 15.8508 -5.84617 58.1275
CA -17.0403 -5.57278 58.7421
CA -4.56105 -1.42623 55.3609
CA 22.1632 -15.3418 55.3479
CA 12.4804 9.49104 75.5569
CA 0.970605 -5.5688 81.9647
CA -2.55408 -16.8199 58.9312
CA -11.3971 4.94016 71.4886
CA -3.30231 14.289 66.0187
CA 26.1175 -29.7528 61.5789
CA 4.79247 -9.54012 81.4043
CA 13.9078 -16.395 75.5824
CA -4.30648 16.4435 64.6454
CA 13.6011 -7.67871 61.523
CA 25.8971 -14.224 55.6073
CA 16.274 -24.2644 60.5253
CA -6.94088 -0.528586 41.6723
CA -5.51492 -10.243 60.516
CA 11.4116 15.1813 74.4526
CA 11.5121 -18.7466 70.9719
CA 4.74173 3.1388 69.248
CA 24.9824 -8.32541 49.5124
CA 3.9764 17.4245 85.9502
CA 18.048 -0.596537 76.389
CA 13.5367 19.5325 44.7211
CA -6.67444 2.15327 63.0813
CA 13.2409 -2.62687 50.0311
CA 1.30456 -1.2194 57.508
CA -0.534964 -5.21262 85.6652
CA -6.29558 11.0842 69.6188
CA 31.4034 -18.814 51.0429
CA -22.3604 9.85575 62.6344
CA 3.97313 15.4121 64.1695
CA 5.15403 6.83291 47.0093
CA 7.76784 -6.79575 91.7637
CA 14.589 3.06451 76.7843
CA 0.681212 10.0511 53.9754
CA 7.07437 -13.7693 82.105
CA 9.9038 5.25203 51.8742
CA 25.6257 -25.6916 48.1131
CA -10.65 2.71308 47.0141
CA -9.15424 1.89947 79.4695
CA 12.0233 5.20819 75.6183
CA 6.52486 -9.22941 87.1559
CA 11.6024 -7.35092 55.6606
