489

CA 4.53399 7.80868 82.5818
CA 18.2542 6.72626 71.7699
CA 18.7901 -3.8152 75.4196
CA 15.5156 -5.01381 51.0187
CA 9.73507 -25.2177 63.1759
CA 14.7051 -26.6723 59.8346
CA 15.8613 -7.32499 24.4285
CA 5.30711 -1.89519 18.9156
CA 3.951 -5.89377 47.239
CA 10.6416 -8.22724 86.494
CA 15.5367 0.626356 16.205
CA 5.42152 -22.0727 65.943
CA 33.0628 -20.2464 35.167
CA 10.8444 4.90339 66.8872
CA 19.3231 -20.3313 45.6464
CA 1.55105 -13.5213 42.8502
CA 6.86278 -24.2483 64.8068
CA 23.7973 -22.1763 50.0904
CA 1.28128 -1.87844 67.4463
CA -2.02335 10.6202 60.8335
CA -3.74001 -4.39803 55.9802
CA 12.6467 -13.348 73.5564
CA 14.262 21.4333 24.7245
CA 17.5805 -14.3541 74.2757
CA 7.54979 7.71534 22.4611
CA 14.2221 -13.0939 79.9223
CA 11.1342 -8.92512 75.637
CA -10.2429 0.453476 73.5293
CA 16.2585 10.5524 22.9495
CA 12.1551 15.7906 64.9444
CA 16.2216 -15.5204 67.1266
CA -9.39878 -7.846 57.2499
CA -23.8937 5.62124 54.8739
CA 6.24303 15.7682 33.9531
CA -16.5296 -5.77532 42.9975
CA 12.6289 1.4611 50.0274
CA 17.6419 -3.94303 77.4939
CA -2.40868 12.1151 58.3522
CA 10.6665 0.781493 88.3958
CA 2.44018 -11.5635 82.0169
CA -11.2018 -8.83215 58.9738
CA 3.67024 11.454 93.6314
CA 15.796 -9.98013 89.49
CA -8.09928 24.9429 18.954
CA 2.55635 -4.16241 80.5553
CA 7.62409 -21.3687 37.0987
CA -0.0899443 -28.2378 45.2619
CA -13.0882 6.39911 68.0473
CA 11.7515 -7.36617 35.2438
CA 14.4813 -9.34502 46.2671
CA 15.8211 -17.4541 83.3308
CA 7.51025 3.57893 74.6736
CA 5.52091 5.78447 53.0277
CA 20.319 -10.8363 27.6456
CA 16.7738 14.709 40.1779
CA 14.3108 0.359962 50.8459
CA 1.52504 -23.9235 40.1163
CA 8.27794 11.242 59.4446
CA -11.5754 1.82498 54.8761
CA 10.5791 -28.4471 57.7825
CA 2.89199 4.67905 81.8231
CA -7.73003 -4.18527 62.5295
CA 18.8723 -35.6079 55.6769
CA 5.00781 15.05 57.5655
CA 12.6705 1.60016 74.0063
CA 9.32832 -13.214 72.8352
CA -1.32974 19.2103 18.2413
CA 12.3967 2.90725 67.6333
CA 5.05073 -1.50076 64.3154
CA 2.49941 22.4534 13.4809
CA -1.69702 -3.01277 87.6439
CA 3.45505 22.0362 17.7237
CA 12.8593 9.97734 68.6445
CA 2.55254 -29.708 37.3346
CA 5.42468 -3.59742 56.6254
CA 2.8066 21.8063 20.6905
CA 25.1261 -24.7127 52.3231
CA 16.5141 -6.12184 28.0021
CA 15.4423 -18.4774 70.6725
CA 34.4535 -9.99511 46.0416
CA 8.16724 6.34318 23.5538
CA 26.9528 -22.1308 55.4091
CA 4.43221 15.6414 22.6776
CA 29.5804 -12.1639 40.905
CA 9.4522 -6.11017 64.9077
CA 10.8711 -4.09007 37.4999
CA 3.1239 13.2489 70.3856
CA 17.0363 16.367 44.5554
CA 14.8405 15.2646 66.8036
CA -4.51851 23.8901 22.5759
CA 1.63096 16.2845 72.0367
CA 16.9097 -19.1491 66.3859
CA 11.0036 3.20111 66.0096
CA 3.47922 -5.25867 58.8787
CA 14.9379 -6.42783 71.5525
CA 20.4546 -15.4765 66.4803
CA 5.6966 20.9019 21.1315
CA 3.7956 -9.71131 61.2401
CA 20.2676 -27.6045 45.834
CA 26.0389 -22.5362 42.0943
CA 8.53673 7.09631 89.475
CA 4.3461 -26.8397 70.0249
CA 13.3929 4.96524 57.5577
CA 25.8988 -25.0889 41.5736
CA -5.37741 12.8998 57.208
CA -0.65689 -5.62861 84.4691
CA -0.453445 9.0202 73.8371
CA 14.1095 0.581089 56.5856
CA 16.2213 -6.00267 22.6441
CA -14.7768 4.01149 65.8001
CA 7.478 6.65779 72.8229
CA 18.2094 -22.0397 40.5991
CA -23.5233 -9.79687 63.6202
CA 9.7775 -30.6682 37.8456
CA 13.9165 -12.5065 71.2035
CA 12.9688 -4.15062 39.8446
CA 18.0135 -1.05243 17.6629
CA 5.21074 8.27798 56.0304
CA 13.6757 -3.87446 59.9734
CA -6.83363 2.01267 66.3582
CA 9.03961 5.33823 55.7613
CA 8.31597 -13.9004 62.5283
CA 13.3364 4.14558 52.1839
CA 19.8639 -31.1597 54.7126
CA 10.0079 -2.41096 68.502
CA 8.20374 5.98039 51.2917
CA 10.3034 18.844 60.1791
CA 7.25113 0.504493 70.791
CA -5.71241 15.2383 68.646
CA 3.67868 14.0949 74.7313
CA 8.83517 5.10885 86.5144
CA 21.7089 -20.2357 57.2662
CA 0.420598 -11.6845 79.2596
CA 9.65143 -17.5958 35.5728
CA 0.378076 8.42998 80.5935
CA -13.1012 -2.92573 44.0951
CA 12.2819 -19.804 80.8677
CA 6.2503 -4.0719 32.3958
CA 2.36971 -8.47757 82.607
CA 14.4339 -3.0367 21.5122
CA 9.61169 -19.7045 36.5796
CA 11.2973 -10.2985 47.1621
CA -6.42694 25.2864 23.4718
CA 15.0394 4.69362 16.1169
CA 14.17 2.93264 16.61
CA 12.7259 12.6688 49.3272
CA 33.2515 -21.5075 44.9346
CA 9.27132 -19.3801 80.8559
CA 13.0316 -3.99376 12.5798
CA 18.6163 -28.5297 67.1332
CA 5.93046 11.9302 81.3637
CA 3.23937 14.6105 61.0621
CA -6.75971 8.42692 70.6913
CA 17.9255 19.027 62.5106
CA 5.52984 -6.30173 54.1852
CA 10.8066 -22.1921 71.7965
CA 0.429925 14.0905 76.8004
CA -1.86704 10.1745 58.8026
CA 37.2471 -20.5531 31.3029
CA -0.647413 -2.69747 66.8749
CA 15.5213 0.793766 53.9253
CA 16.8658 3.57905 75.7785
CA 5.14572 -14.2433 63.4761
CA 6.84403 -25.1983 68.1714
CA -5.45146 10.6963 72.3269
CA 39.6648 -17.6846 46.5433
CA 8.65586 5.83797 74.6162
CA 20.0316 19.1935 65.8546
CA -19.7136 7.72374 56.2849
CA 12.4103 -2.65975 48.3741
CA 15.1116 -27.6368 57.2564
CA -6.99033 -5.23526 52.9395
CA 0.430293 2.58011 80.2853
CA 9.32567 -4.41078 54.9941
CA 1.18638 -14.6092 80.9062
CA 7.76185 -28.7764 59.7191
CA 11.0858 -5.08381 64.9198
CA 5.87206 12.378 27.7165
CA 1.98894 -13.0617 80.055
CA 18.8654 4.35169 64.6676
CA 13.5397 21.5655 36.2007
CA -5.31203 -3.49881 60.0235
CA 0.666361 -27.3421 33.9267
CA 7.92272 1.91741 60.0268
CA 2.36493 8.37249 47.7756
CA 16.845 -5.98107 89.4195
CA 8.003 -1.8183 18.2853
CA 10.1283 4.91699 90.3162
CA 6.01371 -25.104 35.6308
CA -13.7623 -8.49335 59.2307
CA 20.0761 -25.6367 44.0422
CA 6.52493 9.80501 20.119
CA 19.4546 -30.2529 46.3687
CA 28.9732 -21.6496 57.9822
CA 2.97075 8.94088 54.0813
CA -9.2267 -5.48804 52.9334
CA 17.8964 -7.26149 21.4605
CA -17.1698 1.9863 54.9483
CA 9.48745 5.12669 26.2133
CA 1.45605 -6.47505 58.6977
CA -0.149032 22.3374 16.0516
CA 9.59506 7.95508 22.7609
CA 15.2894 -18.3453 66.4032
CA 12.5803 7.56491 89.1056
CA 16.971 22.5539 64.5877
CA 13.048 0.357988 39.7391
CA -12.9219 -2.67958 49.1046
CA 7.57907 12.4694 28.4231
CA 4.70885 15.509 20.6594
CA -8.71025 -6.85542 51.3247
CA 14.1371 -9.49251 73.9595
CA 1.58515 -9.26189 75.878
CA -5.60098 -6.24772 50.3519
CA -13.3641 2.00762 54.5712
CA 5.78232 -8.78299 46.6856
CA 12.063 -17.5053 81.653
CA 15.2348 -1.62548 41.4465
CA -4.07101 -1.35127 64.0712
CA -11.7415 -7.38628 60.8958
CA 2.36915 -21.0715 62.4396
CA 7.58698 -7.64235 75.8293
CA 15.2899 -2.49543 87.2441
CA 8.62625 0.464034 76.9692
CA 5.67227 -13.8927 43.8837
CA 9.06054 -14.5547 40.291
CA 9.05331 7.57978 58.8569
CA -5.08178 0.368731 81.2475
CA 3.35648 10.9074 57.0453
CA 13.3248 -15.4738 72.3869
CA 14.8477 -11.83 77.3519
CA 6.78596 12.3834 33.8735
CA -8.2824 -12.2247 57.9123
CA 18.5569 -1.43037 44.6513
CA 4.92271 15.1771 17.4164
CA 2.71471 -12.8359 44.3506
CA 24.5193 -18.9127 55.5945
CA 6.51426 -12.3842 82.0985
CA 13.0306 -7.73564 86.6974
CA 4.93397 -14.9585 57.8798
CA 17.7631 -5.40879 12.4308
CA 17.7511 -27.3636 53.5908
CA -13.2016 -8.84856 55.7534
CA 15.8222 7.49929 72.4047
CA 6.01845 -0.212092 89.0616
CA 9.83549 15.5392 62.6681
CA 8.14193 11.6922 36.1354
CA -9.76396 -8.20026 62.9625
CA 13.6497 -10.2378 44.5005
CA 5.1977 -9.58463 56.6054
CA 19.2889 -7.70655 83.5457
CA 27.0904 -26.1012 59.3763
CA -6.90879 9.58839 73.3644
CA -9.41859 3.14528 65.5251
CA 10.7791 13.333 47.0312
CA 7.72644 -3.5998 34.386
CA 4.55419 12.1546 83.4306
CA 3.02008 11.062 74.1861
CA 20.7788 -18.2644 66.4719
CA 13.7499 -0.984948 21.1597
CA 15.8857 -12.4165 58.364
CA -12.7771 -0.300268 53.5469
CA 13.7085 -25.1786 57.3022
CA -11.3585 -1.13796 49.2225
CA 19.0989 -30.6786 58.9451
CA 1.26599 7.57354 58.0819
CA 17.7932 -14.2302 69.5437
CA 17.6819 -18.7857 68.6726
CA 13.0805 -12.8964 84.212
CA 1.24321 18.0999 18.6249
CA -9.59911 -11.2765 48.2313
CA -3.50781 8.15547 69.8118
CA 4.29801 -19.5297 62.1508
CA 1.5582 12.1297 92.0936
CA 5.39174 4.19129 85.0193
CA -10.7291 -9.35783 48.5528
CA 0.0498918 -2.22589 63.3132
CA 14.1436 -8.42265 51.1125
CA 29.372 -24.0343 54.2291
CA 12.2038 -19.4427 75.3058
CA 21.306 -1.848 46.128
CA 2.36752 -6.06754 79.5326
CA 19.064 -38.8582 54.775
CA -11.5303 6.42673 73.2593
CA 3.12126 23.0935 15.2425
CA -6.40281 -2.69009 57.5794
CA 7.48499 3.73066 81.5609
CA 3.50252 -26.1052 36.9804
CA 16.9382 -8.95422 29.6954
CA 18.7177 10.0765 21.5641
CA 10.7398 -16.2819 60.7403
CA -10.878 -10.05 52.5768
CA 30.59 -21.5311 47.621
CA 2.78134 -28.1431 41.5327
CA 4.1315 -29.3468 42.7569
CA 4.47905 10.9774 63.723
CA 10.5904 -11.1797 65.4026
CA 13.1305 17.4216 65.3416
CA 4.93544 2.2275 55.9747
CA 9.84175 -7.98674 72.4397
CA 23.3708 -30.7542 50.7249
CA 4.6979 -31.819 36.6357
CA 1.91293 4.43758 61.5622
CA 4.25709 -7.7785 46.063
CA 15.2222 25.5898 34.4831
CA 5.65548 13.2912 62.5209
CA 10.7013 0.126723 19.7547
CA 2.17286 10.7051 52.2026
CA -0.64913 1.2061 84.4094
CA -1.2623 -1.01867 81.7688
CA 12.3108 -9.21422 77.2744
CA 5.60957 7.34235 47.919
CA 12.6309 24.3735 40.4735
CA 10.0163 19.7436 35.6424
CA 32.5165 -18.7385 36.3389
CA 33.2016 -22.4993 64.1096
CA 15.1382 8.91067 22.2729
CA 11.2865 -0.03055 41.0409
CA 5.08269 -8.30125 55.0612
CA 25.4021 -19.7637 65.0299
CA 16.5018 15.1725 46.185
CA 18.6036 -3.01074 23.4002
CA -8.76953 -12.734 49.1449
CA -20.7214 6.81503 57.6713
CA 17.4482 4.54136 21.3134
CA 4.78224 -15.4616 44.4463
CA 17.5348 0.816151 74.2341
CA 17.9803 -15.2538 76.989
CA 15.4269 -3.90335 85.61
CA 21.351 -30.6835 52.5663
CA -5.28861 4.14832 64.2439
CA 2.82951 4.70215 52.6528
CA 37.548 -16.4553 47.1538
CA 15.0304 -4.5077 87.8034
CA -1.96654 6.93781 64.3469
CA 4.43423 1.15481 54.2082
CA -9.61134 5.68826 72.3133
CA -18.1548 7.30656 54.7919
CA 6.12894 -5.55164 56.635
CA 5.60863 7.75754 59.3661
CA -15.73 -4.62587 61.1784
CA 32.9331 -17.8805 41.9663
CA 14.0075 25.9482 42.1623
CA 5.42219 0.142401 56.967
CA 13.3633 -15.7208 61.2687
CA 1.36702 15.7664 19.1061
CA 7.28573 10.946 56.1819
CA 8.38168 -15.0127 60.2129
CA -1.69744 -9.48432 79.9658
CA 11.5101 -5.12384 25.6951
CA 29.7057 -7.43606 45.4557
CA -2.78646 11.3956 65.1913
CA 9.29141 -18.9024 34.2279
CA -9.04101 5.06816 74.3126
CA 9.70363 -7.32812 74.9792
CA 16.3994 -2.78296 47.69
CA 3.32878 8.76762 88.3638
CA 9.52207 19.4671 56.5438
CA 9.97725 -19.0667 62.032
CA 3.61329 14.9459 71.1081
CA 6.31526 -15.643 67.7166
CA 17.5368 -2.67346 86.6577
CA 6.91079 0.269298 81.1511
CA -1.0098 0.778676 55.5435
CA 7.75273 -17.989 69.6635
CA 4.08645 -4.67784 85.2532
CA 9.40973 -4.60995 35.1085
CA 12.6206 -27.2772 63.5055
CA 3.01461 11.1072 21.8766
CA 36.9068 -12.0324 46.2517
CA 25.4624 -23.3287 60.0414
CA 8.91618 -5.81022 87.7232
CA -5.92809 0.768435 55.7182
CA 29.8135 -19.6817 58.5637
CA 11.7469 24.4742 42.5934
CA 4.82441 -1.14812 20.5091
CA 8.20943 7.1548 52.7214
CA 2.72321 3.41926 76.4858
CA -7.70762 -12.2044 64.9835
CA 10.5974 -8.01088 88.4528
CA 9.2646 -13.1838 60.4032
CA 9.06673 -27.3449 61.3035
CA 3.19727 13.5265 17.6426
CA -7.21345 20.8844 17.8309
CA 9.3003 -19.0855 78.9429
CA -18.3698 0.0658988 56.1171
CA -11.1291 13.27 61.7397
CA 18.1929 -5.94626 48.2878
CA 10.8332 22.5454 19.1434
CA 5.71138 4.83789 50.9905
CA 7.79917 14.3361 23.5806
CA 22.5568 -29.455 47.1307
CA -7.36203 14.2033 65.6496
CA 0.297458 4.00393 55.0189
CA 25.0206 -27.2605 50.7492
CA 11.9724 7.79964 48.7535
CA 1.14982 -21.4384 71.1579
CA 3.3636 -4.57831 96.0178
CA 20.6681 15.678 66.451
CA 12.0188 13.5033 19.2096
CA 30.9192 -18.9055 66.1077
CA -25.7043 7.18104 57.3641
CA 29.8875 -10.0881 48.5606
CA 35.6432 -16.9475 34.951
CA -1.84709 19.194 61.4684
CA 14.7387 2.5306 74.6316
CA 15.8917 -6.93583 16.1638
CA 6.6302 -2.30183 21.6638
CA -1.04212 12.5184 61.2163
CA 14.466 -1.97244 36.4354
CA 4.24327 -11.0695 79.6787
CA 16.0676 14.406 62.1811
CA 14.5325 4.06904 60.5611
CA 16.6202 -2.99401 50.9247
CA 21.5085 -13.1808 68.4631
CA 1.2312 -10.149 72.4528
CA -0.648797 -4.69374 77.691
CA 36.6119 -15.0107 49.9549
CA -11.1299 0.395679 51.4787
CA 32.5486 -14.7435 64.4101
CA -13.1912 9.01352 72.0665
CA 0.82294 4.69673 79.4632
CA 11.093 9.49625 73.5152
CA -8.51936 24.0373 21.6552
CA 30.3994 -17.9123 51.0286
CA -8.51552 -1.0072 53.4375
CA 11.7166 -9.70691 74.0928
CA 20.3834 -8.18925 29.1722
CA -0.347125 4.87323 49.6921
CA -13.1955 -5.48757 60.9526
CA 36.2851 -17.2189 49.4157
CA -0.527786 7.63079 67.5375
CA 9.75962 -15.1869 62.0907
CA 10.7314 -2.538 41.0134
CA 12.981 20.9673 65.055
CA 9.24946 14.3529 18.8713
CA 35.1925 -17.0366 46.3832
CA 29.3125 -21.4188 69.0116
CA -22.4935 7.42811 60.7567
CA -12.0886 -13.1478 50.6149
CA 2.76035 -18.5083 72.2111
CA 15.5523 -14.2873 70.2617
CA 16.6455 -9.54755 40.9725
CA -7.8651 3.95239 56.204
CA 20.8441 -2.65554 42.4746
CA 15.8508 -5.84617 58.1275
CA 26.6857 -26.4924 38.6736
CA 13.4893 15.4638 61.6797
CA -15.8095 0.538797 66.9515
CA 2.70038 -9.5309 49.5633
CA 26.3015 -17.0757 55.4676
CA 14.9853 -28.7493 55.3877
CA 18.3604 -1.47447 38.9275
CA 19.6051 1.85323 17.1474
CA -9.16901 -1.21714 64.2327
CA 1.23326 19.6182 70.9155
CA 7.27657 9.46211 54.6243
CA 11.3969 2.99648 74.8713
CA 18.6683 -15.6796 72.0424
CA -1.60307 14.5 63.0707
CA -13.6519 15.5628 61.2864
CA 1.63529 10.8601 20.4927
CA 14.1041 -13.4837 87.1568
CA 6.30177 -17.6609 85.4996
CA 11.5121 -18.7466 70.9719
CA 6.26186 14.6032 82.055
CA 21.4866 -23.1701 42.3585
CA 6.86447 2.21579 57.4294
CA 17.3792 4.34618 61.9486
CA 13.5367 19.5325 44.7211
CA 3.02986 -1.47911 88.3653
CA 1.52157 -4.33344 57.8851
CA 30.354 -10.3501 42.2836
CA 19.6227 -20.578 50.3364
CA 0.426933 23.238 19.7094
CA 26.7003 -12.7592 46.2884
CA 19.3232 -13.4636 27.5579
CA 22.088 -36.7181 54.5996
CA 7.7312 1.50963 67.4175
CA -10.3418 -1.20478 69.6029
CA 13.2552 -12.5964 48.8773
CA 1.8821 9.87417 65.6683
CA 5.48739 -23.4821 68.8189
CA 3.51215 -33.2655 38.5393
CA 27.862 -21.3736 60.1863
CA 27.3393 -23.7658 53.6463
CA 26.5253 -17.2757 53.5611
CA -10.9152 -0.129907 45.0172
CA 6.52486 -9.22941 87.1559
CA 17.5722 1.96893 19.8204
