489

CA 33.2004 -16.076 45.5106
CA 5.28687 -9.67393 72.5685
CA 9.43204 5.8454 19.9975
CA 15.5156 -5.01381 51.0187
CA 9.73507 -25.2177 63.1759
CA 21.426 -4.16719 38.4013
CA 15.8613 -7.32499 24.4285
CA 14.3695 -9.5874 67.0453
CA 3.951 -5.89377 47.239
CA 30.7388 -21.1423 62.9509
CA 15.5367 0.626356 16.205
CA 5.42152 -22.0727 65.943
CA 22.4781 -4.94495 33.5213
CA -5.7947 -8.46003 59.4934
CA -8.24822 -10.8725 59.1748
CA -3.13233 -33.7739 35.5328
CA 10.7367 -18.6289 63.8173
CA 0.535534 1.52483 82.9843
CA 14.7295 -8.65714 43.6195
CA 10.5848 1.15151 17.763
CA -1.94018 -34.3391 33.9756
CA 6.21429 6.14747 57.0523
CA -13.9736 1.56218 70.0266
CA 6.32736 -26.1543 42.2204
CA 31.8071 -15.2236 48.1339
CA 14.2221 -13.0939 79.9223
CA 11.1342 -8.92512 75.637
CA -10.2429 0.453476 73.5293
CA 16.2585 10.5524 22.9495
CA 8.73139 5.83417 66.8916
CA 16.2216 -15.5204 67.1266
CA 10.2644 20.9155 37.4574
CA 13.5216 -5.44939 65.9177
CA 6.24303 15.7682 33.9531
CA 7.14318 -10.34 76.7919
CA 11.2129 -21.7064 37.9381
CA 17.6419 -3.94303 77.4939
CA 13.4489 0.64044 39.1434
CA 14.12 -4.32941 76.6989
CA 8.34966 13.1674 21.2162
CA -11.2018 -8.83215 58.9738
CA -26.9092 1.26266 61.3246
CA -3.56607 5.64529 64.9793
CA -8.09928 24.9429 18.954
CA 24.525 -5.60054 43.1678
CA 7.62409 -21.3687 37.0987
CA 14.8874 -14.8933 77.4769
CA -13.0882 6.39911 68.0473
CA 6.87608 -24.9557 40.411
CA 24.4786 -6.36777 47.8788
CA 15.8211 -17.4541 83.3308
CA 7.51025 3.57893 74.6736
CA 1.85152 14.0595 72.0963
CA -9.12281 0.338288 43.5491
CA 16.7738 14.709 40.1779
CA 10.6293 -8.45226 66.4791
CA 1.52504 -23.9235 40.1163
CA 9.39928 3.4825 59.2813
CA 4.84349 -17.5873 70.4629
CA 8.82829 0.125134 20.5734
CA 2.89199 4.67905 81.8231
CA 21.2516 -8.48779 31.8405
CA 18.8723 -35.6079 55.6769
CA 30.8105 -19.8835 60.5323
CA 5.81206 7.74752 24.0065
CA -15.9439 -8.65063 60.2892
CA -1.32974 19.2103 18.2413
CA 12.3967 2.90725 67.6333
CA 5.05073 -1.50076 64.3154
CA 20.2215 0.0593032 71.7819
CA 16.6218 1.85056 20.0143
CA 3.45505 22.0362 17.7237
CA 12.8593 9.97734 68.6445
CA 2.55254 -29.708 37.3346
CA 5.42468 -3.59742 56.6254
CA 2.8066 21.8063 20.6905
CA 4.50423 -8.35428 54.5396
CA 16.5141 -6.12184 28.0021
CA 9.48246 26.4361 44.5043
CA 2.81254 -33.2086 46.1874
CA 8.16724 6.34318 23.5538
CA 8.20861 11.3544 21.2445
CA 6.10494 0.643787 21.8572
CA 13.9086 -3.92228 19.2682
CA 12.9088 15.2988 45.9366
CA 8.20761 -3.65585 38.2051
CA 3.12559 21.895 74.7725
CA -6.91086 -8.73808 51.2861
CA -0.827509 -6.26521 82.6967
CA -4.51851 23.8901 22.5759
CA 1.63096 16.2845 72.0367
CA -15.0056 -4.28701 44.0075
CA 4.72874 -0.174268 23.221
CA 2.78587 -11.0365 44.3608
CA -6.01245 -7.16554 56.7105
CA -2.92202 -9.44434 55.5318
CA 31.1484 -20.2594 43.2429
CA -12.3012 2.72873 76.9764
CA 13.1357 -2.34549 39.9776
CA -10.8256 5.91828 55.4795
CA 8.53673 7.09631 89.475
CA 4.3461 -26.8397 70.0249
CA 14.7435 -1.39516 28.1495
CA 19.5429 -3.43742 80.3075
CA 5.42039 10.3785 56.1378
CA -0.65689 -5.62861 84.4691
CA -11.7231 5.4215 71.9843
CA 16.6593 1.90173 66.6285
CA 2.89676 10.9282 83.5722
CA 6.98355 2.26912 88.6916
CA 18.5221 -6.82986 88.0904
CA 18.2094 -22.0397 40.5991
CA 21.0993 -8.7406 41.9981
CA 26.1448 -13.6873 50.418
CA -10.18 -13.0948 54.3752
CA 12.9688 -4.15062 39.8446
CA 18.0135 -1.05243 17.6629
CA 15.1296 -20.0937 25.1949
CA 21.3594 13.8394 68.0018
CA 14.12 -20.2729 65.2489
CA 9.03961 5.33823 55.7613
CA 8.24054 -4.41656 69.2553
CA 29.3666 -7.67291 29.6443
CA 19.8639 -31.1597 54.7126
CA -21.18 7.90875 52.0638
CA 8.20374 5.98039 51.2917
CA 18.8808 -12.1794 40.759
CA 10.1483 1.73601 64.7355
CA 32.5484 -22.1899 42.7034
CA 12.2093 13.5754 45.8693
CA 7.40697 -5.74065 81.8907
CA 21.7089 -20.2357 57.2662
CA 0.420598 -11.6845 79.2596
CA 9.65143 -17.5958 35.5728
CA 0.378076 8.42998 80.5935
CA -13.1012 -2.92573 44.0951
CA 0.926469 4.40168 79.5624
CA 6.56409 6.53344 84.6096
CA 2.36971 -8.47757 82.607
CA 12.5437 -10.6676 85.3696
CA 9.61169 -19.7045 36.5796
CA 11.2973 -10.2985 47.1621
CA 6.13662 -3.1969 71.7383
CA 6.54135 -8.13065 35.9868
CA 31.1931 -16.0881 52.2584
CA 8.25052 -9.51017 66.2968
CA 18.3194 -6.58835 65.5012
CA 9.59982 -16.2638 41.2627
CA 12.2329 -28.2583 58.511
CA 31.9169 -21.255 57.8771
CA 5.93046 11.9302 81.3637
CA 3.23937 14.6105 61.0621
CA 14.6834 -1.58345 49.9696
CA 17.9255 19.027 62.5106
CA 5.52984 -6.30173 54.1852
CA 15.5072 -6.58391 77.8163
CA 0.429925 14.0905 76.8004
CA 17.7474 -2.23095 19.3816
CA 17.7469 -11.2281 30.2683
CA -7.21345 -4.89244 50.1471
CA -9.22738 -8.39699 48.0489
CA -5.24311 -4.28583 64.3624
CA 7.95869 4.29249 84.2883
CA 6.84403 -25.1983 68.1714
CA 9.63852 8.69166 55.4699
CA -11.4072 -1.14673 55.2722
CA -1.8371 -26.5331 34.6222
CA 20.0316 19.1935 65.8546
CA 10.4246 6.57266 57.9617
CA 4.94718 5.58966 75.8923
CA -3.79075 -6.16711 51.3231
CA -6.99033 -5.23526 52.9395
CA 0.430293 2.58011 80.2853
CA 29.7307 -14.3273 62.4263
CA 4.71111 6.69558 84.827
CA 4.24243 17.3095 16.2461
CA 11.0858 -5.08381 64.9198
CA 5.87206 12.378 27.7165
CA 8.52546 30.5074 44.8725
CA 18.8654 4.35169 64.6676
CA 13.5397 21.5655 36.2007
CA -5.31203 -3.49881 60.0235
CA 14.3524 -30.399 48.8512
CA 17.4763 -19.2483 29.4809
CA 13.567 -14.3912 46.5758
CA 16.845 -5.98107 89.4195
CA 8.003 -1.8183 18.2853
CA 4.8009 -27.4468 37.008
CA 6.01371 -25.104 35.6308
CA -13.7623 -8.49335 59.2307
CA 27.5856 -24.6148 53.7808
CA 16.5529 -16.6546 75.575
CA 12.7667 1.72902 74.6693
CA 28.9732 -21.6496 57.9822
CA 2.97075 8.94088 54.0813
CA 8.11724 14.4696 57.0026
CA 14.8103 21.7525 43.0383
CA -17.1698 1.9863 54.9483
CA 16.4537 -27.8865 45.9805
CA -2.16777 4.85386 84.0661
CA 12.3977 21.5732 37.9409
CA 9.59506 7.95508 22.7609
CA 15.2894 -18.3453 66.4032
CA 12.5803 7.56491 89.1056
CA 35.1456 -16.7234 47.5112
CA 9.85283 -24.163 37.0944
CA 9.98181 2.81551 85.9343
CA 7.57907 12.4694 28.4231
CA 18.4115 -5.98761 29.8475
CA -8.71025 -6.85542 51.3247
CA 7.40245 10.2761 73.4831
CA 22.3895 -24.1276 55.6651
CA -5.60098 -6.24772 50.3519
CA -13.3641 2.00762 54.5712
CA 5.78232 -8.78299 46.6856
CA 12.063 -17.5053 81.653
CA 14.3291 -11.1161 64.7015
CA -4.07101 -1.35127 64.0712
CA 9.81359 11.6841 57.8906
CA 2.36915 -21.0715 62.4396
CA 7.58698 -7.64235 75.8293
CA 11.2309 -8.67854 64.6334
CA 8.62625 0.464034 76.9692
CA 5.67227 -13.8927 43.8837
CA 7.66101 -22.4786 32.1312
CA 10.8047 -10.4207 38.1896
CA -5.08178 0.368731 81.2475
CA -6.37862 -10.7783 49.9156
CA 11.815 6.22114 66.7994
CA -3.28338 -4.03052 51.5125
CA -3.50413 17.9996 69.5127
CA 6.87189 -3.73156 33.7693
CA 1.63416 19.8168 21.2983
CA 6.78646 -16.0145 67.3632
CA 0.84787 -1.18204 21.7101
CA 24.5193 -18.9127 55.5945
CA 5.42678 -22.9878 72.558
CA -8.77104 -3.50742 47.53
CA 4.93397 -14.9585 57.8798
CA -12.7396 -3.87714 50.3964
CA 15.3229 21.0786 63.5348
CA -13.2016 -8.84856 55.7534
CA 4.58379 5.84617 78.9058
CA 6.01845 -0.212092 89.0616
CA 9.83549 15.5392 62.6681
CA 8.14193 11.6922 36.1354
CA -9.76396 -8.20026 62.9625
CA 13.6497 -10.2378 44.5005
CA 5.1977 -9.58463 56.6054
CA 19.2889 -7.70655 83.5457
CA 13.1399 -14.114 59.5573
CA 24.5802 -22.5612 47.5456
CA 1.85141 -9.70956 54.75
CA 10.7791 13.333 47.0312
CA 4.60083 23.2069 23.2451
CA 4.55419 12.1546 83.4306
CA 3.02008 11.062 74.1861
CA 20.7788 -18.2644 66.4719
CA -0.0898567 11.0754 62.5126
CA 15.8857 -12.4165 58.364
CA -12.7771 -0.300268 53.5469
CA 14.793 -5.50605 39.0298
CA -11.3585 -1.13796 49.2225
CA 19.0989 -30.6786 58.9451
CA 3.49953 14.8736 66.5995
CA 23.1452 -3.72727 41.1
CA 26.0236 -22.6954 49.8964
CA -1.34363 4.27398 81.3259
CA -7.23511 13.7967 69.6955
CA 17.6445 2.37537 18.3977
CA 4.88717 -7.65442 52.5554
CA 12 10.252 19.369
CA 14.1258 -11.4371 58.5831
CA 5.39174 4.19129 85.0193
CA 11.7916 -6.77517 48.1462
CA 7.431 -1.3953 89.6327
CA 14.1436 -8.42265 51.1125
CA 6.11023 -19.9125 58.069
CA 3.94374 -21.9938 69.3881
CA 23.4505 -26.9671 54.964
CA 2.36752 -6.06754 79.5326
CA 11.9326 -5.02054 79.5073
CA 11.7388 11.8365 73.4105
CA 0.253237 -32.418 48.3522
CA 6.9843 16.1233 31.7845
CA 9.32195 15.9805 20.9688
CA 3.50252 -26.1052 36.9804
CA 25.1696 -29.6237 50.3856
CA 12.5054 -14.1028 70.4061
CA 1.47412 -18.6878 43.8796
CA -10.878 -10.05 52.5768
CA 17.7816 -5.48886 76.267
CA 2.78134 -28.1431 41.5327
CA 15.9226 -15.0215 72.5315
CA 4.47905 10.9774 63.723
CA 33.1048 -14.3606 60.6564
CA 8.97275 19.2963 61.992
CA 12.9168 -6.89752 78.3429
CA 27.6938 -14.9561 48.6656
CA 19.4767 -5.58976 45.8374
CA 12.1581 0.965829 78.4024
CA 1.91293 4.43758 61.5622
CA 4.25709 -7.7785 46.063
CA 15.2222 25.5898 34.4831
CA 5.65548 13.2912 62.5209
CA 10.7013 0.126723 19.7547
CA 24.842 -35.9562 55.6886
CA -0.64913 1.2061 84.4094
CA -1.2623 -1.01867 81.7688
CA 12.3108 -9.21422 77.2744
CA 7.2551 -3.15291 19.5647
CA -0.120833 13.2671 64.1687
CA 10.0163 19.7436 35.6424
CA 32.5165 -18.7385 36.3389
CA 2.20336 -33.8903 39.7874
CA 12.5147 1.1301 19.08
CA 11.2865 -0.03055 41.0409
CA 12.7255 -23.159 61.2245
CA 7.03812 -18.8044 36.9951
CA 2.44927 -20.4629 65.4
CA 18.6036 -3.01074 23.4002
CA 14.3437 1.69987 19.8245
CA -20.7214 6.81503 57.6713
CA 8.50667 -15.6399 44.9272
CA 4.78224 -15.4616 44.4463
CA 22.8866 -1.91009 41.6625
CA -3.14986 16.5537 64.9174
CA 18.1242 -0.128436 76.4119
CA 21.351 -30.6835 52.5663
CA -3.36534 -10.0065 61.6265
CA 9.24206 17.7411 19.0659
CA 26.1468 -11.6774 60.3746
CA 15.0304 -4.5077 87.8034
CA -1.96654 6.93781 64.3469
CA 24.8287 -7.82478 28.1946
CA -2.98226 -4.34719 57.7572
CA -18.1548 7.30656 54.7919
CA 6.12894 -5.55164 56.635
CA 5.60863 7.75754 59.3661
CA 14.3911 -20.855 62.6451
CA 32.9331 -17.8805 41.9663
CA 10.1941 -26.3961 35.1251
CA 5.42219 0.142401 56.967
CA 13.3633 -15.7208 61.2687
CA 6.10477 16.1064 19.5544
CA 7.28573 10.946 56.1819
CA 8.38168 -15.0127 60.2129
CA -1.51004 -17.6459 45.7737
CA 12.0744 8.17565 65.6865
CA -8.56995 -2.72729 54.2663
CA 17.3398 -19.7364 65.3542
CA 9.29141 -18.9024 34.2279
CA -9.04101 5.06816 74.3126
CA 12.1089 19.1865 45.6632
CA 5.13124 -2.72998 80.5449
CA 3.32878 8.76762 88.3638
CA 4.40431 9.35255 27.2403
CA 2.82436 -1.42006 78.5252
CA 1.1314 -24.368 62.6949
CA 11.0112 8.79142 44.7661
CA 12.939 -7.98154 65.6703
CA 20.3642 -18.7266 62.5275
CA -1.0098 0.778676 55.5435
CA 7.50792 10.5551 83.1344
CA 4.08645 -4.67784 85.2532
CA 9.40973 -4.60995 35.1085
CA -3.12221 -7.9132 54.5743
CA 0.882064 0.26061 68.326
CA 36.9068 -12.0324 46.2517
CA 25.4624 -23.3287 60.0414
CA 9.33134 11.1194 44.0249
CA 15.4962 4.27578 14.7327
CA 17.0541 -6.33158 79.9108
CA 11.7469 24.4742 42.5934
CA 4.82441 -1.14812 20.5091
CA -5.5271 -10.5982 56.9938
CA 2.52168 -23.0427 71.4173
CA 1.15076 -17.4223 46.1478
CA 17.7025 -12.7913 66.9276
CA 9.2646 -13.1838 60.4032
CA 9.06673 -27.3449 61.3035
CA 0.226953 -30.046 45.9395
CA 3.77235 12.192 61.6157
CA 17.7482 -32.6703 58.2733
CA -18.3698 0.0658988 56.1171
CA 4.32723 -18.3493 68.4974
CA 18.1929 -5.94626 48.2878
CA 12.6502 -11.4869 66.9585
CA 22.7678 -7.0822 80.6535
CA 0.041178 4.38005 67.8707
CA 22.5568 -29.455 47.1307
CA -7.36203 14.2033 65.6496
CA -4.89994 1.30503 57.3848
CA 25.0206 -27.2605 50.7492
CA 11.9724 7.79964 48.7535
CA 1.14982 -21.4384 71.1579
CA -11.2882 -7.36207 60.9613
CA 20.6681 15.678 66.451
CA 16.3162 -16.9028 26.1312
CA 30.9192 -18.9055 66.1077
CA 12.5136 11.3429 70.8751
CA 29.8875 -10.0881 48.5606
CA 35.6432 -16.9475 34.951
CA 27.0332 -18.8631 57.9255
CA -1.25857 0.0965454 78.3626
CA 22.7261 14.9361 70.7442
CA 16.656 -14.8644 75.9491
CA -1.04212 12.5184 61.2163
CA 16.6765 -11.5427 52.2147
CA -14.7303 -8.47884 52.9008
CA 7.79252 -10.9924 46.5634
CA 8.19359 -3.95164 59.7399
CA 2.47067 -0.168227 55.7374
CA 20.1345 30.3559 33.794
CA -1.51922 13.1614 59.1283
CA 4.32925 11.0896 54.7674
CA 36.6119 -15.0107 49.9549
CA 17.9056 -16.7572 67.1255
CA 32.5486 -14.7435 64.4101
CA 11.3281 -4.71019 77.1207
CA 11.2468 -4.86797 50.1664
CA 11.093 9.49625 73.5152
CA 3.34064 -9.1555 56.3419
CA 30.3994 -17.9123 51.0286
CA 11.5118 -10.6197 44.6619
CA 11.7166 -9.70691 74.0928
CA 20.3834 -8.18925 29.1722
CA 30.0242 -21.2284 59.5865
CA 20.4108 -9.9051 29.9325
CA 15.8452 -6.96959 33.7678
CA 4.26822 3.63571 49.216
CA 11.4078 -8.01579 82.8423
CA 34.7131 -13.8172 46.404
CA 26.0756 -10.8894 46.5092
CA 9.24946 14.3529 18.8713
CA 0.237255 -0.140757 86.7448
CA 22.1283 -0.0632907 15.8472
CA 18.6867 -4.98173 40.633
CA -13.9767 3.56984 72.1284
CA 9.66161 8.88618 57.461
CA 15.5523 -14.2873 70.2617
CA 16.6455 -9.54755 40.9725
CA -7.8651 3.95239 56.204
CA 6.78825 16.9458 64.1847
CA 6.13066 9.81489 22.001
CA 17.1618 -3.46252 43.2858
CA 13.4893 15.4638 61.6797
CA 6.25362 -2.20764 86.1084
CA 2.70038 -9.5309 49.5633
CA 4.90783 -25.1957 68.3894
CA 6.01722 -0.431385 59.0957
CA 11.0332 -13.5418 73.7194
CA 13.4685 23.7084 41.7478
CA -9.16901 -1.21714 64.2327
CA 1.23326 19.6182 70.9155
CA 19.7976 -3.76406 44.8225
CA 1.83606 -32.5842 37.3505
CA 13.3107 18.8419 67.9709
CA -1.60307 14.5 63.0707
CA -13.6519 15.5628 61.2864
CA 7.4837 -5.28119 47.1028
CA 4.5375 -27.2738 41.1588
CA 10.5392 9.57579 41.4949
CA 11.5121 -18.7466 70.9719
CA 2.17752 -11.6189 55.0476
CA 14.6315 -15.4229 45.4585
CA 6.86447 2.21579 57.4294
CA 17.3792 4.34618 61.9486
CA 3.09909 26.5798 18.4688
CA 3.95867 -3.41045 66.695
CA 13.4586 23.3758 32.1475
CA 8.91206 -12.44 89.2658
CA -10.4574 15.4105 63.0635
CA 0.426933 23.238 19.7094
CA 26.7003 -12.7592 46.2884
CA 19.3232 -13.4636 27.5579
CA 22.088 -36.7181 54.5996
CA -3.43447 1.6154 81.1728
CA -10.3418 -1.20478 69.6029
CA 0.559698 9.80955 59.8742
CA 1.8821 9.87417 65.6683
CA 5.48739 -23.4821 68.8189
CA -15.1586 -5.22531 62.4438
CA 6.7038 9.03341 26.1479
CA 11.3494 0.624811 68.558
CA 30.9126 -17.5339 38.8135
CA 26.0208 -3.98128 42.9369
CA 6.52486 -9.22941 87.1559
CA 13.3734 0.337742 88.4003
