489

CA 32.4366 -6.80453 41.0304
CA 1.61187 33.9382 58.0809
CA -13.943 -2.72103 75.4987
CA -13.8851 -16.1207 39.1475
CA 13.4341 9.3139 17.8489
CA 8.73507 20.9598 42.9671
CA 35.6506 -6.75416 39.3874
CA 4.98367 1.54583 75.8046
CA 2.69378 -27.5443 42.1359
CA -0.375006 8.02626 53.2286
CA -25.1002 8.8034 57.0722
CA -0.544349 17.7684 30.2589
CA 22.5959 -23.8482 62.1743
CA 6.04041 2.46414 78.4581
CA 8.58963 16.811 41.7909
CA 15.6142 5.33389 52.1192
CA -37.0499 9.07127 56.3057
CA 9.943 6.63204 50.7356
CA -19.9698 11.5644 59.3065
CA -3.00995 22.2386 76.2203
CA 7.43949 16.748 76.839
CA 8.44515 1.62044 72.3918
CA 36.7857 -7.17761 38.0387
CA -3.81042 -18.2104 48.6071
CA 9.21843 11.593 74.6873
CA -15.7391 -14.3546 89.9318
CA 5.35342 5.83226 76.3122
CA 5.93676 -1.95784 70.6308
CA 6.86862 19.1113 76.2052
CA 16.7351 -6.79735 54.1326
CA 19.1032 11.2643 33.5146
CA 5.91771 -2.39827 76.6996
CA 12.6581 -30.053 58.5538
CA 5.58298 5.62954 84.5268
CA 12.786 -8.02453 81.8614
CA 32.7151 12.9401 39.8483
CA -16.2979 8.35319 53.1916
CA 3.91201 -5.09454 76.6309
CA -9.83308 31.807 65.5252
CA 0.483747 -22.9438 41.6372
CA 28.9138 15.9906 46.2166
CA -0.058146 12.0535 56.4155
CA 30.4601 8.49787 42.057
CA 1.95354 14.0688 89.1779
CA 8.01636 4.41794 45.3003
CA 13.4366 -2.55332 47.3107
CA -18.7203 -35.9087 24.0087
CA -17.2263 -13.4147 93.3274
CA 0.365749 -10.2191 46.3981
CA -10.7838 5.23107 25.6182
CA -19.7246 -21.807 56.8964
CA 28.943 -13.0229 47.6241
CA 28.989 -12.7408 52.645
CA 8.85193 15.0839 42.4911
CA 29.2744 -31.3587 49.6046
CA 21.2061 -22.1348 38.3559
CA 22.5844 -26.529 36.387
CA -11.3959 -4.94075 73.2807
CA 11.6558 13.6616 49.1254
CA 5.50634 -42.0726 52.4082
CA 8.90096 -8.04003 56.1744
CA 2.27549 -15.6269 45.3478
CA 28.9844 -8.34532 52.9326
CA 0.470376 -12.5537 41.9388
CA -18.3188 -16.0895 27.0959
CA -2.39084 -11.3352 53.9546
CA -10.7 27.9725 57.4819
CA 26.7423 -5.43489 47.9548
CA 5.18989 -22.5774 71.7221
CA 3.60735 5.49604 53.0649
CA -8.08514 24.9575 67.6176
CA -13.9641 -20.8053 26.4308
CA 19.0584 -21.9427 36.4769
CA -22.8065 -15.2574 62.6943
CA -18.8775 -13.2922 85.44
CA 31.8474 -13.304 54.4065
CA 8.806 2.59667 74.0978
CA 9.14053 6.88126 60.5223
CA -6.87606 27.4444 50.2348
CA -13.0781 29.3511 48.9524
CA 9.27881 3.93562 83.0466
CA -22.925 20.3447 54.6466
CA -21.6169 -21.0145 27.7018
CA 6.47274 5.69346 62.0754
CA 11.9118 39.6643 55.6131
CA -5.47235 25.8826 68.4859
CA 29.9749 -12.6587 49.324
CA 6.80293 1.61709 87.0742
CA 19.1331 0.597838 52.4911
CA 10.6556 2.25823 79.3621
CA 16.5709 -4.30196 46.0766
CA -10.6934 -5.04551 80.7887
CA -0.309002 30.0295 47.0645
CA -5.88932 -12.376 59.3438
CA 30.6414 -20.1644 49.0541
CA -11.7006 -16.6521 41.6501
CA 3.2707 -11.3281 43.2121
CA 10.6013 0.222088 75.8413
CA -13.2643 -14.6467 91.9386
CA 7.65138 18.5396 38.4753
CA 3.27587 27.2407 75.4417
CA 13.1111 7.68533 81.5352
CA 5.0039 12.0323 85.1208
CA 5.43252 -43.0501 53.9466
CA -2.23593 5.12061 58.7879
CA -1.79599 -18.0658 47.8188
CA 7.53556 16.7229 43.9521
CA 22.659 -24.3704 32.4446
CA 24.5712 -20.9317 28.1188
CA 23.9247 -17.9287 55.299
CA 6.36229 -3.78503 52.6851
CA -10.1635 25.2151 68.1516
CA -2.78465 3.30135 47.5186
CA -4.7294 -17.1968 47.1176
CA -7.78916 19.057 75.817
CA 13.3288 -5.5456 72.3831
CA -26.3815 -5.00361 56.1035
CA 6.73504 0.589438 17.0433
CA 5.28083 -1.97571 20.4346
CA 6.41653 25.1756 77.1576
CA 19.979 -7.59404 86.4828
CA 22.6123 -20.8971 52.9568
CA 7.03284 13.0663 60.1426
CA 19.0965 -12.1079 73.5367
CA 4.93333 12.866 74.852
CA 5.52345 10.8707 74.8813
CA -2.1986 24.7285 72.8116
CA 3.90853 27.78 71.4479
CA 9.94558 11.3549 43.0967
CA -16.0808 -17.783 22.0072
CA -22.9702 -35.6143 28.0394
CA -14.4644 -20.4862 45.4653
CA 34.7611 -10.625 36.3772
CA 11.1887 2.96614 70.148
CA 26.9837 -19.0799 36.9987
CA 8.57467 9.85697 41.5347
CA -3.69012 -17.9424 53.2915
CA -21.1554 12.6254 58.2255
CA 6.4061 -27.6022 71.0016
CA 11.4169 -6.0831 83.6243
CA 8.83583 -5.21549 75.6909
CA 3.25073 -14.5388 38.996
CA 3.75435 7.86266 59.0327
CA 29.2903 -16.0543 25.3698
CA 7.73425 8.89675 77.0949
CA -0.423401 34.5222 43.0419
CA 10.8116 -1.63328 49.5569
CA 1.30039 10.268 76.6614
CA 11.533 10.0119 44.9617
CA -16.8816 -37.6984 30.0243
CA -9.06247 -6.76572 37.0966
CA 15.5923 11.4832 58.9052
CA 15.1141 -6.85742 47.5144
CA 9.23073 -6.92206 83.7571
CA 11.2786 6.8479 60.3803
CA 6.43661 20.1647 78.3169
CA 7.99151 14.3021 35.2955
CA 22.0778 -25.8149 51.3892
CA 14.205 4.64309 84.9452
CA -24.3914 -11.5115 41.4717
CA -35.6475 8.46456 57.5929
CA 4.10439 -38.011 44.8668
CA 9.95042 14.2405 40.0111
CA 6.25986 7.11093 66.396
CA -13.1634 -17.6747 52.0614
CA -6.91651 16.1621 65.1858
CA -5.21994 26.6299 73.6507
CA 13.2507 -27.1496 57.7183
CA -17.1765 -18.7293 26.5994
CA 19.5653 -17.1322 55.2495
CA 26.0363 -19.1181 58.0817
CA -11.0744 -3.97443 76.3746
CA 31.6815 -10.1435 49.9641
CA 6.15042 10.0249 59.2671
CA -4.91458 12.7322 14.8313
CA 2.62749 6.10145 61.5166
CA -0.218186 12.9444 85.7356
CA -0.506466 18.7772 11.8728
CA -0.211194 24.4135 78.161
CA 26.2334 4.23295 39.1092
CA 12.36 -5.85705 74.0406
CA 23.6121 -0.978314 55.4797
CA -9.40608 -21.9784 23.1158
CA 10.1556 -5.60303 55.357
CA -24.0379 -10.769 83.328
CA -17.3094 -5.97659 76.0546
CA -24.1416 0.882722 72.3577
CA -9.23052 27.0529 50.2708
CA -6.13618 24.7417 49.7029
CA 15.2933 -2.99583 48.28
CA 2.10767 9.92515 51.7471
CA 6.26407 16.2336 37.4927
CA 3.62832 17.5695 40.0605
CA -5.06301 28.2087 49.0731
CA -16.3366 -21.049 30.9252
CA 4.89539 7.14367 60.6864
CA -12.1377 -15.5873 39.4989
CA 11.6447 -0.817065 88.4936
CA 6.12985 -22.5156 73.3369
CA 9.78235 11.8872 77.3893
CA -15.7125 -35.1252 30.7992
CA 26.4334 -13.2996 52.5773
CA 13.5905 13.4162 72.2181
CA 8.52098 10.0724 75.456
CA 10.0029 4.15557 76.9391
CA 15.5746 -5.1229 73.0449
CA 17.9051 -5.02791 49.5742
CA -0.991153 21.9594 74.2863
CA 5.81398 -3.67527 68.1049
CA 18.9753 -9.75601 85.1051
CA -0.381075 15.0621 32.5433
CA 12.3278 -26.4184 55.6527
CA 18.9698 -23.3851 34.9498
CA -21.8963 -4.61766 86.2566
CA -19.9664 -6.23688 84.3646
CA 5.18629 -25.1318 69.5998
CA 9.97062 2.92242 64.4423
CA 6.13099 -0.207572 19.8014
CA -11.1005 27.3394 68.9004
CA -6.22609 26.0217 46.9916
CA -10.4499 -18.4546 45.0648
CA 12.4725 9.77759 19.6654
CA 9.44095 6.73049 53.189
CA 9.24906 8.97255 51.6519
CA -19.668 -12.1241 82.6418
CA -17.1036 5.68259 49.6459
CA 3.81737 1.30587 77.3144
CA 2.50589 -8.44545 46.0178
CA 13.7153 10.2844 68.6838
CA 9.94475 9.38405 63.7198
CA 8.53826 6.1569 63.7735
CA 23.794 -25.159 51.8156
CA -1.2656 9.03563 71.7931
CA -17.2135 -21.5007 26.5729
CA 8.2896 -3.61275 77.1006
CA 0.556364 19.422 27
CA 6.40428 7.74199 61.8639
CA 12.7626 11.2721 66.9682
CA -7.24283 30.0867 52.8771
CA 19.097 -2.38544 65.9465
CA -0.115448 -15.48 42.2586
CA 12.2023 -5.5935 70.9258
CA -21.1929 -10.4236 44.7107
CA 5.52532 -20.2596 45.2381
CA 32.1496 -20.4704 50.0573
CA 15.0536 -4.99326 48.7431
CA -24.6062 0.190376 75.1797
CA -15.9709 28.3475 66.2593
CA 19.6671 4.40804 58.5976
CA -12.0475 -18.8829 46.6713
CA 12.7184 11.6979 69.4064
CA 11.0065 0.747752 47.2423
CA -5.54061 34.2847 60.735
CA -10.4909 -19.9573 43.6005
CA 16.4668 7.70202 54.7464
CA 9.58819 3.20866 89.5216
CA -7.54661 5.77974 56.7782
CA 2.93263 19.8804 84.4601
CA 37.1434 -10.6679 40.7572
CA -19.5108 41.4554 47.8019
CA -0.454648 25.7537 72.6888
CA 30.9021 -8.99054 46.6542
CA 13.4084 13.8278 22.4862
CA 32.177 10.4074 41.0396
CA -18.1677 -41.2059 29.4857
CA 11.0766 -28.4082 54.6693
CA -19.9545 -20.2179 58.5122
CA 27.4641 -11.4141 53.9715
CA 19.3286 -25.2842 35.8144
CA 0.323031 -28.3857 64.5951
CA 0.852558 8.99913 74.8962
CA 33.486 9.70229 42.6524
CA 6.45245 4.92024 86.8317
CA 32.2812 -9.71527 60.1457
CA -1.31417 -28.2783 51.4367
CA 4.61065 4.24898 40.6117
CA 5.92845 13.6852 81.3053
CA -32.0659 11.4546 58.6472
CA -22.5233 39.4284 44.35
CA -2.85628 7.26426 56.392
CA 1.49137 -27.0102 73.0906
CA 8.82773 26.0629 56.4918
CA 10.0486 -29.712 57.5359
CA 0.0639978 33.2237 59.3877
CA 10.8106 2.84922 46.9251
CA 14.9548 -4.53523 53.4493
CA -16.8281 -19.7008 41.6163
CA -16.2951 -23.4843 44.3644
CA 7.12559 3.58338 42.1868
CA 1.58235 -25.8776 68.1154
CA 18.4739 11.514 60.158
CA 5.17851 15.4306 55.797
CA 14.4078 -7.53742 54.7642
CA 29.3631 -18.6741 54.3862
CA 21.0765 -23.4905 56.7764
CA 0.471262 12.3513 72.0898
CA 3.72383 20.5682 38.5797
CA -8.83802 21.8027 62.8924
CA 26.3167 -31.0705 49.4398
CA 7.29137 -26.5181 60.3065
CA -6.92539 26.3471 69.8802
CA -6.31075 -35.0188 29.0098
CA 3.96926 -27.8936 66.9876
CA -20.7852 -39.0541 26.5658
CA -11.2907 -12.4735 90.1704
CA -27.153 -7.17066 83.0786
CA -3.90893 19.7351 16.2328
CA 6.97286 14.1861 52.5553
CA -19.9561 -35.2481 30.6981
CA 24.1196 -25.5409 57.921
CA 9.28566 -1.11902 78.5924
CA 18.5226 -4.65837 53.7605
CA 4.18793 2.55786 72.6505
CA 18.639 3.54355 85.2052
CA -15.7703 -16.9035 26.301
CA 16.9675 6.34834 58.9444
CA -3.21486 9.18685 59.4551
CA -22.8761 1.44848 74.6
CA 1.87085 -10.2843 44.8176
CA 3.01071 32.4476 43.8526
CA -6.71828 32.7867 47.0553
CA 36.1172 -9.83 48.6003
CA 31.482 -11.8729 51.7206
CA 10.841 5.2017 55.6143
CA 14.8546 -11.4265 59.282
CA -22.597 -19.944 62.6786
CA -0.364477 -10.215 51.1271
CA 2.32699 -10.8538 50.1497
CA 9.28588 -3.19308 88.2339
CA 28.8031 -8.68761 44.3822
CA 6.9285 -2.22939 81.8579
CA 26.7648 -3.94752 57.1373
CA 20.6913 -11.549 51.176
CA 4.39966 0.304077 81.237
CA 9.25326 3.73526 72.199
CA -7.50047 27.599 71.6754
CA -2.1148 12.0042 86.0456
CA 7.49788 0.544921 80.275
CA 8.59227 41.7066 49.3703
CA 10.7814 3.50881 73.6114
CA -17.5801 -19.225 24.5805
CA 32.1762 9.24362 39.0426
CA 1.82841 10.1209 71.5543
CA -4.53008 30.1739 48.2983
CA -9.53015 27.9663 53.909
CA 29.4748 -6.4043 54.7006
CA -8.46856 22.1044 77.3841
CA 13.4545 5.37795 70.604
CA 25.0596 -21.2317 50.7116
CA -4.44594 12.3076 56.0949
CA 5.75866 12.1248 77.2553
CA -5.54354 -2.93884 85.5681
CA 0.942109 -14.3412 43.7355
CA -1.71207 2.65812 45.7345
CA 28.6226 -30.8765 53.0704
CA 35.1893 -10.8853 41.8584
CA -4.19693 16.2771 61.8629
CA -8.56317 -2.1773 83.2271
CA 7.23201 10.7468 38.5361
CA -21.6755 -21.6089 25.2095
CA -16.296 -19.1179 44.7788
CA 3.74689 7.33775 63.2186
CA 14.6852 12.7009 66.7138
CA 23.4508 -27.1261 56.1096
CA 21.2719 -11.9424 54.2554
CA 11.3543 -6.80989 51.0619
CA -2.97276 9.97805 87.2723
CA 10.8307 -32.0907 60.3443
CA -10.5595 -3.16695 72.7225
CA 5.2445 26.0248 84.2272
CA -6.91013 -11.2927 60.6079
CA -25.107 10.8126 52.0093
CA 23.5829 -15.824 55.3261
CA -11.8919 -5.15439 82.7618
CA 9.50936 7.21549 72.6262
CA -21.9614 8.02822 74.2758
CA 9.71346 -1.97638 72.1027
CA -5.97942 -24.6141 51.8554
CA 5.90265 -3.45528 72.2112
CA 3.32029 4.71943 60.2478
CA -16.5411 -17.8783 29.6692
CA 7.80048 -39.69 48.2281
CA -0.115128 17.275 12.8518
CA 6.57387 -38.8432 51.4896
CA -7.62649 8.74487 15.7986
CA -15.8964 -20.6411 43.589
CA 10.9027 -30.5722 55.7942
CA 4.47943 24.4227 80.9762
CA 2.77456 4.89811 77.0288
CA 1.69713 7.50336 57.7129
CA -26.4761 18.169 58.1745
CA 7.65002 11.9112 17.1021
CA -5.07255 13.3345 69.5736
CA 5.83362 4.67485 71.0252
CA 1.15848 -37.211 44.6793
CA 3.31696 -38.4974 49.4696
CA 33.1906 -11.6914 56.3024
CA 3.62622 -28.8319 40.1564
CA -15.4376 -20.2767 58.9655
CA 4.16745 11.0197 80.6222
CA 4.39919 5.78313 58.5279
CA 3.63958 -26.791 72.9299
CA 34.9169 12.4811 41.0619
CA 16.6779 -6.86623 76.3902
CA 5.38771 9.21249 61.4595
CA 10.6426 8.71748 20.0669
CA 5.20617 1.75065 18.9987
CA 18.9553 -22.794 60.2358
CA 38.8287 -3.43066 38.6467
CA 8.18724 12.7494 37.8776
CA 29.053 -7.89057 47.4639
CA 30.7663 -13.6184 47.2673
CA 11.0902 8.05436 62.3863
CA 8.45958 26.186 73.1411
CA 4.19274 15.7477 88.2429
CA 3.36325 9.43936 47.6847
CA 13.0059 12.5812 20.2446
CA 3.42594 -20.1776 44.6178
CA 11.9526 8.15695 18.9095
CA 30.9557 -16.2786 49.7033
CA 18.6263 -19.0643 63.2263
CA -27.2328 -12.2711 44.1321
CA 5.44062 -28.501 39.4215
CA 27.7717 -17.5603 48.8803
CA -20.3053 15.9726 57.4768
CA -8.24964 -5.03765 74.0619
CA 29.6089 10.2313 45.867
CA -8.16374 27.4379 57.0791
CA -1.17363 38.2002 40.2619
CA 26.5533 -22.5969 53.0959
CA 12.0598 10.371 11.4538
CA -8.21972 30.0655 68.0371
CA 13.0622 9.33855 55.3703
CA -23.0463 -1.86493 26.7082
CA -7.2384 -27.4342 30.1874
CA 32.3394 -12.6965 46.1172
CA -19.4544 -21.1226 25.2213
CA 5.9953 15.2695 40.1745
CA 29.7612 -15.562 51.7005
CA 8.3273 -36.0096 44.0308
CA 15.1151 -29.4041 61.1158
CA -10.3871 19.2969 75.8514
CA 6.02808 18.1525 78.1122
CA 14.0891 3.6659 87.6026
CA -10.9275 29.1001 52.5912
CA -11.0523 23.4139 37.5009
CA 3.38902 16.3788 41.8648
CA 29.5485 -7.09728 56.4927
CA 10.8672 11.962 17.3425
CA 2.68971 -8.65748 61.1678
CA -12.6989 29.3646 62.7118
CA -0.175753 6.95159 74.8445
CA 25.4553 -26.064 52.6884
CA 19.3396 -4.44318 72.5852
CA 29.8762 -9.86568 54.049
CA 16.43 -9.33306 46.8433
CA 9.58762 10.8682 15.4782
CA -21.1435 -19.7344 25.5779
CA 36.4748 -7.92687 53.1749
CA 2.86385 13.3741 83.0253
CA -21.614 13.6808 61.5529
CA 23.363 -18.9156 53.884
CA 11.1368 -3.51228 48.9128
CA -0.831537 13.7757 16.6444
CA 5.61608 -11.1089 45.267
CA 4.97422 0.774697 74.1516
CA -23.8579 10.1552 56.3443
CA 7.42826 13.1005 75.9462
CA 9.13465 1.21567 45.0132
CA 6.44551 9.71598 66.5569
CA -28.1433 -8.42429 65.6031
CA -22.1137 -6.40387 45.2214
CA 9.66408 10.5926 52.7473
CA 8.90438 1.27504 15.7586
CA -0.616494 -29.6731 41.6521
CA 24.998 -6.91536 67.811
CA 7.46988 4.82606 91.7691
CA -12.6281 -19.2932 44.9655
CA 9.08327 0.37703 77.2725
CA 2.74724 -1.53678 72.2251
CA 15.7096 -1.35603 49.16
CA -11.8714 22.7161 34.7335
CA 11.082 2.99108 86.4948
CA 18.4047 10.3785 38.2186
CA -1.60119 7.49939 61.465
CA -17.5668 -21.9122 29.3933
CA 3.77713 15.8668 78.6809
CA 13.7239 -27.4311 54.7961
CA -8.29382 28.6372 50.4771
