489

CA 9.56747 12.6612 48.9303
CA 13.2713 -11.6883 66.5902
CA 11.8045 -8.65224 68.4524
CA 4.99858 -24.9634 76.5118
CA 6.05089 -17.6523 66.4107
CA 11.8618 -10.9395 78.0505
CA 3.71329 -12.9884 51.2118
CA -0.862406 -0.156062 43.2032
CA 19.9833 -21.2958 49.4345
CA 11.1235 25.1802 39.8326
CA 9.38231 -13.7874 82.6005
CA 5.42108 10.4985 73.0746
CA 22.4781 -4.94495 33.5213
CA -0.0780922 -12.6782 43.8738
CA 27.017 -26.5398 60.0854
CA 24.3079 -22.5807 50.5908
CA 1.83754 -37.0927 35.744
CA 10.4274 -3.57436 42.7704
CA 22.2785 -6.35344 44.1822
CA 10.5848 1.15151 17.763
CA 11.9021 25.6184 51.328
CA 3.36699 23.6004 66.6416
CA 1.04673 -8.68124 56.4713
CA 3.02465 -25.7493 36.1223
CA -20.8441 6.61103 55.0267
CA -7.0657 -0.291956 81.5637
CA 7.65101 -7.72456 82.8863
CA 11.6785 -6.64761 35.3004
CA 12.2308 -27.0386 65.956
CA 35.2306 -15.8003 68.9148
CA 27.0276 -25.4883 62.4944
CA -4.03676 -32.4515 45.8123
CA 14.5838 -13.3666 61.1188
CA 8.29013 27.5995 39.3134
CA 11.9074 18.3797 62.8449
CA 11.2129 -21.7064 37.9381
CA 17.6419 -3.94303 77.4939
CA -6.01948 22.7128 17.8985
CA -8.74119 -2.9219 58.6126
CA 3.56176 -6.68684 86.7877
CA -15.8163 -8.30687 65.4464
CA 25.0351 -25.0221 54.2578
CA 10.9869 -12.7355 74.3315
CA 20.303 -17.3051 88.0741
CA 15.2587 -4.0054 80.401
CA 23.0617 -5.73669 35.8543
CA -7.73313 -4.80777 67.5062
CA 5.95841 -14.034 38.4989
CA 11.0577 -15.9891 50.5191
CA 20.115 -17.5185 63.0647
CA 21.9379 -22.8009 47.8193
CA 20.8098 -18.8739 81.2333
CA 1.85152 14.0595 72.0963
CA 5.58163 -3.40944 35.6522
CA -6.52488 32.1168 18.7
CA 21.1699 -18.78 57.111
CA -6.5578 -8.96935 53.5891
CA 14.8345 -0.989782 72.1854
CA -12.6203 -3.59953 48.5735
CA 7.95551 -10.2074 46.5682
CA 12.0791 1.92608 55.0507
CA -4.02986 -10.2821 49.1304
CA -10.967 5.80746 55.4287
CA 13.0334 -9.27302 83.3589
CA 25.2031 -26.593 47.8059
CA -15.9439 -8.65063 60.2892
CA 9.60376 -22.9368 40.2816
CA 16.8035 -3.56944 25.9986
CA 22.3345 -21.4366 50.3603
CA 12.8827 -6.64524 16.4051
CA 12.9495 -3.82504 26.2459
CA 9.00193 -4.19476 45.9652
CA 27.909 -18.736 42.981
CA 20.6068 -4.27848 73.3562
CA 6.98994 -1.95031 77.6228
CA -8.85363 -0.982896 68.1433
CA 18.2832 -13.4067 68.3983
CA 16.5141 -6.12184 28.0021
CA 9.48246 26.4361 44.5043
CA 5.61168 -1.09407 19.2208
CA 21.0575 4.1211 67.0421
CA 6.72518 7.89827 21.3901
CA 0.177965 -20.6287 61.7243
CA 5.88201 8.70854 54.3727
CA -0.306836 24.131 21.9505
CA 11.2219 -6.93957 86.3711
CA 3.12559 21.895 74.7725
CA 0.400794 -12.6377 59.037
CA 3.98482 -7.44396 36.9114
CA -4.51851 23.8901 22.5759
CA 2.24342 3.10401 71.7007
CA 1.66915 -5.99914 57.2961
CA 15.2894 14.0532 68.9082
CA 2.78587 -11.0365 44.3608
CA 4.26999 -11.826 35.4899
CA 3.46173 7.96084 54.8747
CA -13.9104 -2.6783 47.2735
CA 13.3377 -6.47231 28.5375
CA -4.8605 -2.32536 44.3714
CA 6.23654 -3.58682 71.155
CA 10.6255 -29.7648 64.5991
CA 10.6102 -25.1471 31.4869
CA 18.4825 6.15004 62.683
CA 4.69818 7.63169 21.2437
CA 9.64131 -26.5731 39.302
CA 15.3737 -19.1123 67.188
CA -11.7231 5.4215 71.9843
CA 0.81839 -6.76549 43.4678
CA 27.6643 -19.8463 52.3436
CA 13.4489 -8.62819 63.8118
CA 18.5221 -6.82986 88.0904
CA 6.58285 -10.3531 34.2061
CA 16.1679 -19.9608 62.881
CA 1.32355 -9.53965 48.2929
CA -6.4066 26.6909 17.7585
CA 1.86646 13.3293 77.2429
CA 14.5259 -14.2496 85.5425
CA 8.07741 -14.3463 68.939
CA 21.3594 13.8394 68.0018
CA -13.0868 -10.9123 66.0343
CA 21.303 -7.98202 76.6279
CA 8.28804 -19.6195 48.6016
CA -3.69059 1.62018 85.1033
CA 2.53154 -7.18135 78.9197
CA 13.5863 -11.0281 45.3511
CA -7.50898 -5.42693 86.8756
CA 18.8808 -12.1794 40.759
CA 2.32181 -9.31299 45.9494
CA 14.3622 -6.71352 71.0115
CA 12.4123 -23.4834 68.3812
CA 10.553 -26.7157 63.8764
CA 14.9724 3.24638 15.7239
CA -5.27407 -6.51149 55.7902
CA -2.26308 14.379 68.6564
CA 18.8596 4.35262 68.0024
CA -4.10477 -7.83703 44.7881
CA 4.6566 -2.97398 94.0342
CA 2.22075 6.11587 60.0372
CA 0.398945 -17.278 66.9857
CA 28.2816 -16.8686 50.563
CA 4.61671 21.8131 72.8614
CA 27.2014 -24.3635 56.3738
CA 26.817 -20.0971 62.8207
CA 4.95533 5.66865 75.0125
CA 15.0392 -16.4955 53.7344
CA 2.59806 -28.6707 39.6488
CA 12.5133 22.1221 42.7389
CA 9.85616 -10.6933 69.5785
CA 4.24395 -2.89796 44.5778
CA 26.5564 -22.7925 58.1596
CA 5.93046 11.9302 81.3637
CA 14.7329 -8.91508 23.4052
CA -6.02949 1.96312 48.3984
CA 9.20907 -9.46648 41.1006
CA 22.702 5.81325 62.1422
CA -6.64419 2.87414 54.825
CA 8.10858 6.38087 19.5389
CA 7.31274 -22.661 32.3715
CA 5.3206 22.7745 68.5617
CA 7.82189 -23.0308 62.0839
CA 12.47 -19.1916 66.3007
CA -5.24311 -4.28583 64.3624
CA 5.45999 -0.756373 66.167
CA 5.45102 -21.8476 66.2422
CA 1.25941 4.33322 52.7913
CA 27.6251 -20.4296 47.4886
CA -0.257454 -15.2967 59.2577
CA 8.65597 -4.03945 73.2761
CA 2.10551 4.42778 76.4214
CA -18.9148 2.64796 67.9786
CA 1.85876 -5.74311 63.143
CA 0.144787 -10.1991 58.2078
CA 10.9528 19.0127 32.6675
CA 15.424 -22.4477 65.3169
CA 14.844 -36.5866 50.3628
CA 12.052 -13.9116 41.5911
CA 5.49735 -11.5759 68.8927
CA -1.81771 -29.8724 43.4279
CA 8.71394 -25.4757 35.085
CA 4.12642 1.86759 67.3494
CA 16.9728 -12.4257 44.0193
CA 28.5544 -17.7342 57.7714
CA 22.9294 -30.5439 53.9725
CA 13.4748 -36.1913 52.5822
CA -1.9759 -15.3477 50.5546
CA -1.17907 0.697391 63.9039
CA -20.4831 -0.691284 51.4165
CA 10.8933 24.6359 33.6381
CA 13.1063 -12.9088 49.1506
CA 16.6039 -31.9477 47.9903
CA -17.4314 4.49308 54.2132
CA 24.5103 -31.163 49.4649
CA 12.205 19.9184 44.9447
CA -7.18894 -3.83219 49.3589
CA 25.1334 -18.8532 52.7041
CA 26.2018 -15.0686 52.8882
CA -13.5701 5.42366 57.873
CA 4.68563 -12.0309 71.7109
CA 30.1559 -21.6909 39.0746
CA 18.9051 -23.6003 46.1925
CA 11.3283 1.47175 90.6929
CA 9.61326 6.509 59.0911
CA 12.0734 -11.7691 50.202
CA 7.66668 -8.00197 78.7551
CA 35.1456 -16.7234 47.5112
CA -6.30352 19.8169 17.4564
CA 15.3534 -5.61549 82.107
CA 30.0375 -13.2653 69.7805
CA -8.29295 29.0542 16.9926
CA 7.94622 -14.4455 44.1134
CA -0.519669 -16.8236 44.2401
CA 22.3895 -24.1276 55.6651
CA 11.7046 -21.9794 64.1794
CA 3.61753 -18.8259 67.027
CA 17.6258 -9.71641 31.9678
CA 12.063 -17.5053 81.653
CA 9.10048 -12.3842 73.9542
CA 15.5748 8.99188 67.0865
CA 29.4955 -15.3604 65.2132
CA 30.9179 -20.0056 45.3502
CA 1.37928 1.47946 71.3863
CA 23.487 -17.2509 86.3149
CA 3.87745 5.67832 57.9254
CA 1.83124 21.0465 14.9294
CA -0.116038 -25.0599 64.6973
CA 11.6797 -35.2882 50.7467
CA 9.50815 -9.92478 74.777
CA 8.18797 14.5607 19.1199
CA 7.62148 18.8943 34.1181
CA 17.4236 -1.13255 28.0191
CA 4.34516 -4.45731 91.7629
CA 1.64573 -1.27908 15.7376
CA 10.3664 -4.59314 85.0184
CA 0.290199 -5.96308 49.6891
CA -16.2736 17.4555 62.5118
CA 13.8676 2.34523 12.274
CA 14.1777 10.1471 43.3107
CA -5.80533 6.78984 60.724
CA 16.2651 0.804872 18.5732
CA 28.8917 -22.5598 59.0937
CA 15.3229 21.0786 63.5348
CA -13.2016 -8.84856 55.7534
CA 18.8527 -4.95495 90.4381
CA 6.01845 -0.212092 89.0616
CA -13.5429 4.05252 52.7241
CA -12.5481 5.81151 75.4602
CA 10.4952 11.0174 49.28
CA 15.1894 13.0342 63.4264
CA 13.8813 2.60421 68.4234
CA 10.1634 -14.0231 42.0966
CA -13.4867 0.609987 81.8694
CA 10.7676 -11.4319 75.5898
CA 20.6424 -17.7206 50.7795
CA 11.8341 21.959 64.6476
CA -2.97003 10.8629 68.3488
CA -6.84348 17.5783 66.9525
CA 9.31463 -22.1778 34.3834
CA -7.9447 0.14447 46.5743
CA -15.8114 6.4343 68.3011
CA 23.0635 -20.0117 52.4281
CA 9.52191 25.5046 42.2044
CA -5.24451 -0.312051 52.6909
CA -0.357927 -34.6084 33.7067
CA 27.2756 -23.2789 63.275
CA -2.32906 0.757721 85.947
CA 4.34824 -5.71888 65.6659
CA 13.1325 2.08652 87.2962
CA 31.5161 -17.5608 60.965
CA 6.08134 10.9889 16.2595
CA -14.5176 -9.13907 54.348
CA 6.70373 19.1425 18.0607
CA 5.07438 -15.0103 67.293
CA 5.09301 -4.37727 41.7955
CA 8.43989 -8.67456 88.2742
CA 11.6024 -26.9686 71.8086
CA 7.07047 6.37833 70.6842
CA 14.1436 -8.42265 51.1125
CA 20.3232 -5.31498 43.7019
CA -1.10959 12.398 71.0726
CA -2.45563 4.83739 63.0463
CA 8.31926 22.6477 49.7776
CA 33.273 -15.3822 69.5685
CA -0.541113 -9.20005 50.3836
CA 0.253237 -32.418 48.3522
CA 7.12864 9.02209 17.2869
CA -12.996 -8.14791 51.536
CA 8.11184 8.51911 53.0921
CA 8.38689 17.1033 47.5485
CA 0.744486 20.2495 18.5608
CA 5.86408 2.1105 56.2848
CA 22.781 -21.1402 83.0963
CA -12.0592 -2.01384 80.7963
CA -10.9912 1.11752 48.8274
CA 17.255 -17.3607 68.1259
CA 0.266767 -29.2596 40.2017
CA 31.5475 -17.3191 55.6482
CA 3.86878 -5.34735 78.6939
CA 0.92337 -14.8184 43.3051
CA -1.73265 -32.92 36.9663
CA -0.439801 -18.5513 54.7145
CA 16.2484 -27.1611 49.9228
CA 9.78276 2.79795 20.1001
CA 17.8478 -7.47049 84.9864
CA 2.0594 -7.6219 82.0349
CA 20.8885 -14.7663 62.7364
CA -1.73889 6.6783 64.7992
CA -18.3827 3.04749 52.7442
CA 17.8768 -19.2388 72.4345
CA 10.798 5.17395 70.984
CA -6.5658 24.3364 15.2609
CA 16.6671 2.41439 25.6377
CA -9.75779 16.0773 65.2088
CA 10.2925 12.5993 45.425
CA 7.67168 0.552806 65.5617
CA 6.50543 2.62593 75.7248
CA -18.8458 2.72332 50.872
CA -15.5973 2.84694 74.4518
CA 20.7043 -3.51026 46.3672
CA 2.93029 -2.58872 59.1281
CA 23.691 -18.2707 51.5761
CA -20.2178 -7.76599 62.7799
CA 13.6545 -11.8156 74.5601
CA -20.7214 6.81503 57.6713
CA -12.3946 3.05966 72.2378
CA 11.2848 -11.7952 72.6971
CA 8.68252 -7.55966 75.2282
CA 14.2278 3.1741 91.7641
CA 20.6147 -13.1994 65.1153
CA 29.6909 -16.5664 59.4579
CA 2.1848 -14.4464 49.666
CA 3.63848 15.1695 81.3463
CA 2.47161 -16.4682 45.3771
CA 6.15243 16.2411 37.2486
CA 7.38303 -8.55704 89.765
CA 10.354 28.8907 41.2392
CA 2.69863 10.8255 58.9501
CA 22.5929 -17.4536 63.3729
CA 6.12894 -5.55164 56.635
CA 5.60863 7.75754 59.3661
CA 1.11908 -25.2328 66.9563
CA 29.5148 -22.2808 63.5058
CA 6.70395 8.45305 56.1759
CA 14.6529 -20.955 66.8062
CA 16.6454 6.23229 62.0044
CA 6.93145 -19.7739 31.8857
CA 8.28372 13.3347 76.4065
CA -7.6706 -3.09169 53.6518
CA 18.5524 -9.72012 78.5004
CA 2.15573 -17.0096 50.3639
CA 11.3926 -4.64393 65.072
CA -16.7911 5.11105 67.24
CA -17.1901 3.69479 85.0328
CA 6.07291 -15.6392 70.0359
CA 7.938 -6.05952 77.3048
CA 13.3905 -18.6042 70.9977
CA 12.8613 31.2911 38.0589
CA 10.9194 26.8537 49.4793
CA 25.4475 -24.2198 51.2343
CA 8.75356 10.9566 13.1158
CA 17.7061 -7.22496 75.731
CA 10.1121 -0.734968 18.2536
CA 4.28536 -2.90972 69.2974
CA 7.48405 -8.67497 40.2977
CA -0.276368 2.655 71.9254
CA 12.3524 28.7597 41.6566
CA 14.7453 -5.96774 86.0669
CA 15.0357 -21.5297 69.6324
CA -7.03356 8.42276 57.3006
CA -7.36537 -3.51515 83.2756
CA 17.8913 11.6879 66.8022
CA 19.8857 -21.0109 63.2934
CA 10.1035 -21.6886 66.4807
CA 19.0905 -16.8337 66.3556
CA 8.36208 -7.12666 85.9442
CA 13.8275 -22.0812 32.2543
CA -13.7025 2.43303 80.3135
CA 7.02837 9.55158 77.3097
CA 1.15076 -17.4223 46.1478
CA 11.1749 -8.14176 36.4266
CA 14.3221 -14.101 64.7995
CA 9.06673 -27.3449 61.3035
CA 5.21681 10.2869 55.7467
CA 12.6876 -35.1359 53.9682
CA 6.68369 6.16031 74.1917
CA 0.696745 -7.34207 46.4486
CA -1.56538 -5.48563 47.7284
CA 3.13701 -27.6958 31.9154
CA 9.75272 -18.8681 40.6146
CA 7.61141 -8.51208 84.8343
CA 7.8989 -6.52958 87.8282
CA 2.72511 20.425 18.8191
CA -7.36203 14.2033 65.6496
CA 13.4768 -15.6778 49.6362
CA 25.0206 -27.2605 50.7492
CA 11.9724 7.79964 48.7535
CA 11.5949 -9.5956 90.4351
CA 4.06215 -27.6645 75.6183
CA -3.80942 -0.46556 41.3769
CA -2.29382 -0.777798 81.0333
CA 1.318 25.7574 72.8134
CA 15.6806 13.8555 74.6736
CA 2.55648 -8.59495 90.2195
CA 2.83394 -17.1652 66.3644
CA 4.05922 4.90193 83.6871
CA -6.45427 15.0882 67.6894
CA 21.4145 -15.7393 38.5309
CA -9.96275 5.23649 47.066
CA 14.9301 -1.9241 83.5202
CA -3.27558 17.8648 72.1352
CA 13.4482 -11.3959 51.4954
CA 14.041 -26.948 49.629
CA 14.3629 -16.5624 83.9691
CA -1.23909 -1.92164 61.3333
CA 10.01 -0.167943 78.1223
CA 3.48953 -32.5352 41.0406
CA 20.2809 -6.353 89.0036
CA 31.2756 -20.6916 63.1652
CA 16.0195 -21.7821 73.09
CA 17.329 -3.83254 43.7128
CA 21.7194 -13.7804 41.9943
CA 18.6192 -9.77975 44.9073
CA -20.5594 1.78513 80.9992
CA 3.34064 -9.1555 56.3419
CA -4.19507 29.9651 17.5701
CA 13.0428 -8.06353 19.9312
CA 5.70226 -16.3471 49.3739
CA 8.1314 -7.03886 35.0378
CA 15.8565 17.7851 67.244
CA 29.6787 -20.4665 64.5828
CA 2.86126 -26.3523 28.8987
CA 18.3415 1.83292 22.0378
CA 17.181 -0.858187 21.9431
CA 7.21368 -1.85277 57.9209
CA 3.09297 -27.8974 71.6816
CA 1.17152 4.85614 81.0661
CA 7.05898 9.09026 58.2767
CA 10.5731 5.92411 91.9696
CA 8.01542 -17.4316 29.8786
CA 17.1091 -10.2329 83.8929
CA 9.66161 8.88618 57.461
CA 9.57208 -20.9311 64.3033
CA 24.1583 -26.25 58.6023
CA -7.8651 3.95239 56.204
CA 11.7081 -23.9733 38.2632
CA 26.0538 -24.5241 47.8463
CA -0.484308 4.50495 83.0922
CA 8.18402 12.1077 42.3205
CA 16.3711 -5.37425 79.1531
CA 18.2044 -5.5864 73.5882
CA 20.7971 -20.475 51.9765
CA 8.52462 16.1892 41.369
CA -1.82561 -15.3333 61.7617
CA -14.0106 -10.075 48.6679
CA 6.38075 20.4163 45.6782
CA 1.23326 19.6182 70.9155
CA 11.7286 -10.0595 65.9679
CA 20.5405 -6.0018 40.957
CA -12.9023 -4.58628 46.0886
CA 14.7907 31.5401 39.0433
CA -13.6519 15.5628 61.2864
CA 10.2908 10.7866 60.3885
CA 17.3813 -12.4337 64.512
CA 9.7243 -8.38207 43.1108
CA 18.3406 -7.91344 80.0362
CA 2.35717 -7.55191 47.3743
CA 12.3951 -11.2173 88.3736
CA -3.06935 -6.67791 43.8284
CA 17.3792 4.34618 61.9486
CA 5.78693 25.1654 69.2778
CA 15.597 -11.0696 48.1829
CA -17.1511 6.80255 84.934
CA 6.80461 1.91069 60.2508
CA -23.8261 6.13929 56.4384
CA 15.4267 -35.4071 51.8842
CA 14.2064 -7.6335 15.4713
CA 4.47312 -14.9179 69.3081
CA -3.37105 -17.7266 61.7731
CA 12.1072 14.7357 40.2216
CA -10.3418 -1.20478 69.6029
CA 19.2469 -6.59281 35.5339
CA 17.4514 -17.3211 83.33
CA 13.7294 0.100857 77.9561
CA 19.8627 -19.616 72.5734
CA 8.73314 5.24387 56.2573
CA -10.7439 -6.43281 48.8702
CA -19.3833 1.52861 53.1184
CA 31.3665 -13.2001 51.1236
CA 4.10685 -23.3179 76.7221
CA -7.92818 -2.72157 50.6356
