489

CA 14.4471 -6.28609 46.3168
CA 24.292 -5.7785 33.3595
CA -15.6202 2.41027 49.2453
CA -6.51931 2.73612 64.7975
CA 11.7068 -1.76298 27.8
CA 4.07665 -23.0859 69.7365
CA -3.80551 -5.8983 52.0378
CA 8.49679 -4.21526 76.9454
CA -15.3529 4.60874 48.109
CA 4.9269 -0.836276 64.9744
CA 3.53505 -7.01407 64.7231
CA 16.0312 -1.39118 27.7505
CA 9.76605 -0.392131 63.6814
CA 17.9988 -6.99184 70.34
CA -11.7466 -1.76736 59.9191
CA 25.2992 -17.0737 34.5395
CA -2.12336 -12.324 41.2349
CA 6.24375 3.39956 64.1107
CA -18.0032 4.27905 87.2766
CA 2.57851 -4.60958 62.6253
CA 4.66166 9.54527 47.0451
CA 6.68314 -11.2133 44.1382
CA 2.81648 -20.8686 67.6425
CA 3.02465 -25.7493 36.1223
CA 18.8129 -13.6213 84.4888
CA 12.0019 2.51474 7.06422
CA 3.23483 -3.79348 64.143
CA 4.75797 -12.5588 71.0408
CA -9.06702 3.53906 54.4885
CA -2.53206 -25.1809 61.6395
CA 2.72266 -21.4281 45.3013
CA 8.81774 -14.5353 46.4981
CA 7.04206 11.3241 23.8881
CA 22.6761 -23.4761 54.5127
CA 27.0831 -19.4544 41.7171
CA 7.39498 11.2705 52.6117
CA -15.2709 8.99732 48.3953
CA 14.5746 -16.2223 83.7603
CA 30.1521 -17.8088 52.8659
CA 8.70374 4.05587 92.0688
CA 12.3004 -15.7771 92.4635
CA 12.4163 3.6613 68.7914
CA 4.01521 -7.42333 39.2244
CA 18.3438 -27.4604 48.6675
CA 28.0723 -10.567 77.3839
CA 6.32283 -25.1729 66.7163
CA -0.14078 -16.5934 44.7501
CA 0.783126 -1.48274 63.6321
CA 4.8029 -4.9234 63.8323
CA 11.712 -0.277094 88.3449
CA 18.257 -22.2988 49.8558
CA 9.56638 -12.8263 35.5938
CA 1.77298 6.22459 56.7749
CA 11.8566 0.768007 91.5357
CA -19.6589 1.81232 88.2576
CA 10.3784 -8.40429 28.1756
CA -10.5228 3.68379 78.6649
CA 6.40894 6.51595 68.8869
CA 6.80362 -2.40443 64.6982
CA 6.34123 -6.17492 35.4898
CA -6.31575 4.06408 55.933
CA 2.99446 -0.961857 57.1989
CA 4.51631 -3.03822 41.6977
CA 8.53211 -9.17519 90.5677
CA 9.59319 -5.03104 55.2505
CA -14.0128 -2.75999 80.3682
CA -2.10164 -6.35939 49.8019
CA 5.09272 -9.00639 49.1075
CA -2.79237 21.1277 74.7922
CA 12.7886 -13.6135 89.8456
CA 9.92338 -30.1874 70.9933
CA 6.01007 -14.8716 45.944
CA 24.9031 -13.7742 58.8127
CA 2.46701 -2.21303 65.6967
CA 7.55135 -14.619 37.0783
CA 2.80015 -13.3473 69.7275
CA 15.0832 -2.90463 74.96
CA 13.0384 -14.2859 33.4925
CA -2.81794 1.9595 64.2928
CA 5.98266 -13.2573 77.3268
CA -0.159815 0.712508 66.2701
CA -15.8673 1.4106 64.5455
CA 10.7624 -10.0077 77.4692
CA 19.8156 5.90073 22.9351
CA 6.71068 -15.1352 87.4594
CA 11.8295 -18.2437 79.8519
CA 15.9544 -4.3439 20.7477
CA 11.6266 -19.8443 52.7194
CA 24.8503 10.1571 64.0494
CA 15.938 4.76806 17.441
CA 17.6423 -0.379701 81.9621
CA -1.78766 -5.40925 57.0283
CA 15.6382 -4.23653 61.7317
CA 17.7031 2.52377 66.9316
CA -16.5966 -2.57825 61.1731
CA 34.3683 -18.7526 70.8781
CA 0.465461 4.2428 83.0354
CA -4.71879 -23.7837 70.0458
CA 30.5536 -2.30491 69.2224
CA 31.0379 3.49585 74.7623
CA 11.6454 -12.9837 88.1657
CA 26.9503 -13.1936 49.375
CA 18.199 5.38528 66.7202
CA -7.24657 25.0027 23.2393
CA 15.3499 -30.2599 51.1738
CA 2.62175 13.8263 67.8676
CA 5.9953 10.5419 60.7797
CA -5.56231 -30.1361 45.7424
CA 9.49446 -14.9656 85.44
CA 29.0086 -18.6297 38.7035
CA 9.53816 -4.08204 38.8809
CA 6.06107 -14.2952 82.0593
CA 12.2032 -7.95636 70.7646
CA 8.44648 -6.3425 83.064
CA -11.5905 1.40563 57.7607
CA 26.962 -17.8665 36.7034
CA 16.9087 -30.0989 52.3373
CA -0.748499 2.33735 81.4185
CA 32.1846 -7.33649 73.8208
CA 11.2326 -4.76431 19.8595
CA 4.56551 -16.2758 49.3184
CA -7.26217 19.8025 24.4033
CA 5.07647 -13.5148 66.5086
CA 11.217 -9.09002 44.7322
CA 11.3761 4.08241 75.274
CA 6.87433 2.53952 88.2887
CA 6.65599 18.4717 50.3228
CA -11.2777 5.74701 53.2088
CA -0.301171 6.74751 65.8452
CA 13.6686 0.713343 67.934
CA 21.8276 -20.9233 53.584
CA -6.08742 6.20515 46.468
CA 15.6583 -13.6926 77.8675
CA 3.12003 -12.0492 82.2129
CA 2.31041 -5.08122 38.9484
CA 26.3571 -10.3647 67.5242
CA 16.344 -7.41286 69.091
CA -5.16394 8.08124 63.8963
CA -10.9469 18.7388 19.0657
CA 8.82381 7.32431 58.4479
CA 9.9582 -13.6115 48.9959
CA 3.47047 11.7593 22.7998
CA 26.817 -20.0971 62.8207
CA 24.6546 -15.4633 42.4681
CA 5.66639 -5.44083 65.8698
CA 2.07383 14.9419 66.3735
CA -7.59194 4.77577 52.8696
CA 6.72613 -18.4873 37.4309
CA -13.3316 -0.519974 48.7226
CA -7.20767 10.2162 65.1565
CA -11.9397 -1.227 44.2218
CA -0.442173 12.8123 69.1941
CA -8.21438 6.74403 40.3602
CA 14.878 -2.1232 59.496
CA 4.70682 -8.98618 84.0853
CA -11.3629 16.6943 72.7888
CA -2.74412 19.4873 20.8707
CA -0.909131 14.1925 67.7674
CA 24.8902 -4.89431 72.8754
CA 10.3231 -6.26442 40.4367
CA 9.22792 -8.41535 85.128
CA 10.6033 -4.61396 30.1205
CA 3.93535 -8.77439 94.1427
CA 33.1598 -17.6026 67.0892
CA 8.45808 1.18322 70.5273
CA 9.86322 18.1039 47.8423
CA 13.5205 -2.31687 80.5053
CA 9.04388 16.1719 15.0326
CA 7.58384 10.9563 70.0201
CA -21.9225 5.64566 74.4648
CA 0.498962 -16.676 52.7797
CA 15.0208 -4.56832 22.6052
CA -1.77519 -2.33829 56.0166
CA -0.829499 10.4211 67.4035
CA 28.6331 -0.849293 69.2286
CA -6.24158 -25.0894 62.4573
CA 2.21192 -5.63492 35.5654
CA -1.81771 -29.8724 43.4279
CA 4.7239 -5.20709 37.2561
CA 10.4787 -36.1518 54.2607
CA 4.23606 -13.5842 84.8299
CA 15.2276 6.33246 78.2162
CA 7.75987 -9.82118 49.5934
CA 7.15453 -6.59204 41.5932
CA -8.68319 3.62321 42.997
CA 15.3408 8.71684 81.1982
CA 12.3683 24.9987 38.102
CA -9.45711 2.91124 66.5652
CA -15.1381 4.83974 71.2483
CA 13.4103 -0.191739 54.6508
CA 1.21771 4.20524 85.6054
CA 6.18269 -9.65579 91.9293
CA 13.662 -18.8294 87.8876
CA -3.75047 3.44936 77.8939
CA -12.5779 2.76161 71.7155
CA 8.35941 -1.52432 65.0083
CA 6.28847 2.46407 76.5691
CA 11.9758 3.39898 10.1242
CA 19.6858 2.62046 83.3554
CA -1.13003 7.76789 60.5236
CA -10.5526 1.64906 79.1677
CA -6.04168 10.6122 71.8754
CA 10.5574 -6.52445 64.8979
CA 6.76953 1.67914 56.2343
CA 14.5216 -11.0133 71.6467
CA -6.30352 19.8169 17.4564
CA 13.0075 31.9501 38.3854
CA 17.2318 -2.36062 17.6059
CA 24.0884 -15.5607 46.0346
CA 1.20358 8.59098 64.8951
CA 15.8732 -9.60022 90.8402
CA 10.6806 0.484917 84.8821
CA -6.62345 26.3197 18.3727
CA 25.69 -14.6562 37.9875
CA -7.4118 -7.08099 51.3549
CA 15.8747 1.81274 91.7969
CA 18.0766 0.309025 88.8156
CA 20.3436 -4.42708 88.5863
CA 11.8664 -5.70908 32.1724
CA 7.72527 -32.0373 67.9833
CA -3.00314 6.51115 60.1698
CA 6.20897 14.9385 19.1526
CA 7.30955 -2.57047 54.0613
CA 7.31755 -9.2157 97.004
CA 26.7539 -15.7415 42.6825
CA 3.51644 -14.2987 65.5117
CA -4.72654 20.3935 23.293
CA -10.632 11.9218 61.7522
CA 14.5027 4.88098 22.149
CA 18.0258 1.49184 30.4194
CA 14.475 -13.3489 83.9092
CA -11.2261 12.8455 70.2142
CA 8.61938 -34.7018 64.4261
CA -9.67413 15.6123 68.265
CA 28.7495 -7.96631 75.817
CA -10.3325 -3.5297 43.1456
CA 19.7138 -20.4165 50.8729
CA -7.57376 29.0433 19.1071
CA -10.9847 34.5015 16.818
CA 29.0092 -17.1703 61.5684
CA 27.4257 -11.5207 78.917
CA 7.62296 19.4827 53.3009
CA 23.1814 -6.50424 38.1673
CA 20.2152 8.41008 67.1803
CA 13.1138 -3.19872 75.8246
CA 24.8623 -11.5027 80.2084
CA 8.72234 8.98553 18.5067
CA 6.13818 -30.0347 75.0917
CA 2.66839 2.57486 76.1572
CA 6.32802 6.86804 64.6895
CA 8.06456 -24.8886 67.6126
CA 37.6016 -21.5809 72.5524
CA 19.4251 -2.73722 89.4969
CA 15.3745 -19.0114 82.3199
CA 6.52125 -12.5335 83.1915
CA 25.0607 -13.1761 65.0555
CA 6.32812 -11.6903 75.8506
CA -3.65258 -2.85504 56.6276
CA -13.3668 -12.0726 54.5659
CA 14.9394 -12.3184 46.5901
CA -0.773442 -31.9468 38.7755
CA 11.9175 17.0227 68.3661
CA 7.16202 8.11166 70.3031
CA 7.87548 -4.34852 62.5916
CA -3.18839 -17.171 56.0886
CA 19.3926 -16.1548 77.7166
CA 9.3063 -12.7961 95.894
CA 18.3903 -2.9309 57.8917
CA 18.3273 -8.95564 46.4828
CA -17.0846 11.8645 52.0061
CA 6.16812 -16.0794 64.4572
CA 4.5298 -9.34616 40.6845
CA 8.48383 -15.1679 66.8088
CA 22.4288 -18.8709 49.6793
CA 30.6332 -2.45678 71.6354
CA 9.43306 -9.07642 74.4713
CA 6.87537 -9.9711 80.7612
CA 2.01461 -8.1744 69.1953
CA 15.2018 0.0590148 84.6649
CA 7.6486 -4.42672 70.3622
CA -5.07187 -23.9419 64.3328
CA 14.9026 -3.78989 47.2422
CA 8.69333 -11.597 75.0758
CA 6.52706 -20.4001 67.6954
CA 7.12864 9.02209 17.2869
CA 10.3541 5.00218 19.6401
CA 2.42437 -20.9006 40.9915
CA 2.09879 -7.59057 35.5929
CA -9.84359 21.6516 17.0119
CA 17.89 19.827 35.2257
CA 6.67571 -6.018 85.3688
CA 9.06837 7.58071 70.7581
CA 12.0809 -12.7076 84.024
CA -18.3031 6.85549 71.9725
CA 10.5625 -5.47226 51.7201
CA 0.0254977 -26.0523 79.604
CA 19.3514 6.487 62.6805
CA 11.297 -11.9153 72.6501
CA 0.40594 -13.2613 37.3143
CA 6.82689 -12.2541 79.233
CA 16.2484 -27.1611 49.9228
CA 26.2188 -17.244 57.5209
CA 10.0993 0.269105 76.4765
CA -7.59366 6.30065 44.097
CA 6.42007 -2.86215 59.4081
CA -4.692 22.1415 71.8114
CA 6.87172 -12.095 81.3846
CA 24.9561 -16.7393 65.9579
CA 29.665 -13.984 38.8716
CA -0.151014 -5.70843 39.6488
CA 16.6671 2.41439 25.6377
CA -18.6864 3.57484 75.5131
CA -4.1147 -20.8643 67.8216
CA 10.699 -5.61102 35.7194
CA 18.3752 -10.0481 53.0759
CA 9.08921 -30.4682 74.4238
CA -11.7083 -4.75577 43.3167
CA -18.4166 -4.94067 80.7
CA 0.954909 -23.559 68.6153
CA 18.5338 -12.0336 47.249
CA 16.3938 1.24281 11.4601
CA 14.3402 -17.8806 89.3286
CA -19.7732 3.42689 72.0245
CA 13.7464 -16.3794 51.7808
CA 9.77494 10.7826 51.8834
CA 16.6083 6.21495 20.0155
CA 16.6257 -4.77496 71.9893
CA 5.24676 -15.1806 83.544
CA 8.52961 -2.51504 18.6647
CA -0.845673 3.84536 59.5468
CA -17.4706 3.32155 68.4572
CA 13.6681 16.0371 63.3176
CA 15.103 4.4276 62.3416
CA 13.7864 2.0128 28.0944
CA 31.904 -18.2996 63.9856
CA 11.5479 12.3225 69.655
CA 2.20153 -29.565 38.4937
CA 1.37301 2.16328 59.0456
CA 21.3208 -13.909 49.9168
CA 7.48294 4.64881 65.0962
CA 4.96802 16.4918 19.7889
CA 13.8011 -17.6802 80.7546
CA -8.50552 20.3158 72.2246
CA -11.1605 1.32923 46.4209
CA -9.64234 13.1213 60.3586
CA 11.9331 -14.6738 87.586
CA 21.8559 -20.8004 46.2669
CA 10.9672 -0.0896416 10.3039
CA 3.54056 -14.7796 86.1782
CA 14.8855 3.53755 12.7885
CA 15.8897 -10.5899 78.731
CA 29.4988 0.076194 72.9959
CA 15.6782 -2.31661 26.1304
CA -9.6881 34.1523 18.8454
CA 12.9085 -2.28516 60.3501
CA -2.84776 12.7462 72.2202
CA 6.67848 -6.10537 64.0852
CA 7.10963 -16.8768 35.7843
CA 13.4005 -3.60129 63.597
CA 13.3661 -4.00031 61.5408
CA 7.41207 5.75052 20.6484
CA 6.60304 13.3279 50.8038
CA -7.13491 15.7945 71.2682
CA -0.839933 0.205735 75.8471
CA 12.3524 28.7597 41.6566
CA 0.65887 -2.47834 38.7954
CA 10.4169 -6.74281 67.0941
CA 4.81678 -22.3487 67.3417
CA 6.00725 -11.4971 77.707
CA 3.37475 -33.7132 55.4117
CA 21.9003 3.26451 17.7217
CA 3.94366 -11.4696 76.8122
CA 5.19112 -11.3904 40.8806
CA -9.44496 1.21593 53.5109
CA 13.0536 3.23861 76.7754
CA 18.8087 -14.9021 52.5925
CA -12.7961 35.5407 17.0916
CA 24.8046 -25.54 53.2022
CA -4.40465 4.6665 67.2171
CA 5.80494 -23.5922 38.5745
CA 8.31068 -2.39358 79.8937
CA 18.0919 -6.56004 44.3823
CA 0.593972 -12.1426 40.8711
CA -11.8122 -2.51932 78.3591
CA 11.6113 26.0639 35.4542
CA 25.9675 -16.4845 44.9136
CA 12.9861 -8.71615 42.4755
CA 4.92368 -34.3714 57.9922
CA 26.3798 -13.5876 45.8397
CA 37.3818 -22.4893 67.9178
CA 2.72511 20.425 18.8191
CA 26.4047 -21.0852 52.1615
CA -8.11502 10.1975 70.0149
CA -12.0799 -0.170168 50.0091
CA 3.4894 -15.202 42.1261
CA 11.369 -19.2803 47.1571
CA 4.29205 -1.52119 77.3249
CA 8.16484 -36.5216 59.9106
CA 21.1149 8.35072 62.3526
CA -12.4132 4.6123 72.5504
CA 10.5399 -13.5359 33.9972
CA 7.67179 1.34889 77.9112
CA 7.26066 8.1082 61.1298
CA -0.511694 -32.6865 45.5352
CA 5.84084 -7.39318 78.6219
CA 7.62535 7.89778 7.12064
CA 12.6156 -2.09464 73.7504
CA 18.0966 22.5588 34.8107
CA 26.6786 -18.9555 56.8066
CA 8.68542 15.9137 45.0499
CA 9.60208 -10.9713 31.6915
CA 5.58544 9.59323 44.4144
CA 27.4876 -13.1761 63.1047
CA -2.73273 15.6434 71.1606
CA 21.2812 -20.3656 48.0197
CA 26.4883 -10.3614 59.5166
CA -1.01672 6.08169 55.1072
CA -12.2882 -8.60662 58.3356
CA 20.4767 -3.70686 40.7752
CA -9.42778 3.76289 73.5937
CA 7.18757 -12.5714 64.0062
CA -11.378 -5.17779 59.1104
CA 2.38258 24.4045 18.3655
CA 14.4235 1.78417 25.7483
CA 10.7635 -6.88196 47.3701
CA 12.0889 -33.2475 76.1855
CA 0.0344585 14.9084 64.1986
CA -19.0046 4.35715 65.0562
CA -12.2326 -2.6769 50.9631
CA 12.2267 -2.90076 18.9713
CA 28.8821 -15.7438 57.9993
CA 22.8133 -17.0493 56.8004
CA 13.4502 23.4634 36.4049
CA 20.7041 -11.8138 50.2534
CA -16.6085 1.35613 82.0693
CA 8.71355 1.05436 79.4242
CA 18.1209 -30.3611 45.3797
CA 4.83477 4.42015 59.4236
CA 13.7805 -7.16319 71.1393
CA 6.16288 -10.8841 94.8522
CA 7.71807 8.13461 24.1932
CA 10.8905 -27.4174 66.5091
CA -7.64691 38.6983 19.1032
CA 4.97921 3.65864 88.0112
CA 13.6209 -4.46221 32.4778
CA 3.03751 7.45095 63.3086
CA 6.68293 6.47672 8.11035
CA 7.45555 -6.7389 74.3892
CA 15.7416 -14.8389 81.1178
CA 7.421 5.64398 70.7146
CA 12.2661 -6.68246 72.9332
CA 22.3836 6.93848 17.9849
CA 12.142 19.0473 68.7961
CA 7.42239 6.55237 55.9517
CA 13.4317 -10.0474 77.5101
CA 15.2015 1.98153 31.9331
CA 20.5405 -6.0018 40.957
CA 18.9171 -10.2453 48.5495
CA 9.24714 -18.2993 33.634
CA 1.18636 18.5191 19.9931
CA 5.4792 -18.6086 67.0325
CA 25.3411 -17.3678 40.0391
CA 3.31654 14.2523 50.2523
CA 3.1819 -5.17278 67.2432
CA -20.884 4.80928 83.7252
CA 8.11195 -4.15635 59.5067
CA 15.4775 -13.5094 91.8057
CA 24.9592 -15.9879 49.1437
CA 12.7463 26.927 46.4886
CA -12.06 6.21135 45.9858
CA 24.9802 -13.9778 50.7106
CA 10.3896 22.4886 48.8868
CA 22.0702 -13.6908 82.616
CA -11.5752 -2.06488 48.6626
CA 2.69928 2.62624 81.1705
CA 7.61966 -9.69146 82.5044
CA -20.1023 -0.861069 88.0765
CA -10.1917 12.5797 67.1434
CA 15.9676 -10.8435 42.1792
CA -16.6334 5.69007 69.2391
CA 8.98601 5.05958 7.42455
CA 17.0303 -11.4656 53.5689
CA -15.7178 6.99136 47.6676
CA -5.3755 -24.3967 60.6748
CA 3.30611 -27.9816 78.0375
CA 18.8342 -14.2311 76.3934
CA 1.3307 5.11312 52.4295
CA 12.9462 -24.4002 67.0086
CA 24.4711 -1.48687 32.1382
