489

CA 14.4471 -6.28609 46.3168
CA 24.292 -5.7785 33.3595
CA -15.6202 2.41027 49.2453
CA -1.99578 5.01395 56.8322
CA 11.7068 -1.76298 27.8
CA 12.7334 -1.78842 85.5955
CA -3.80551 -5.8983 52.0378
CA 21.4307 -6.37155 37.6525
CA 7.33315 -10.4384 70.4205
CA 4.9269 -0.836276 64.9744
CA 5.67148 2.42501 63.4728
CA 23.0143 -7.04356 51.6765
CA 9.76605 -0.392131 63.6814
CA 17.9988 -6.99184 70.34
CA -11.7466 -1.76736 59.9191
CA -2.7568 -4.77836 55.3897
CA 22.4659 1.50688 18.1696
CA 3.56171 -6.79255 90.6913
CA 12.3258 -11.7769 36.9544
CA 2.57851 -4.60958 62.6253
CA 4.66166 9.54527 47.0451
CA 13.0908 -15.9853 71.3725
CA 8.95301 -34.6679 61.9924
CA 5.8235 -25.9251 69.2172
CA 17.5707 9.65677 25.466
CA 20.3863 -14.0737 77.8706
CA 3.23483 -3.79348 64.143
CA 8.84958 -5.86667 59.6156
CA 8.17013 -26.9439 78.4219
CA -17.6635 3.23018 44.4607
CA 10.7826 -5.37862 41.3316
CA 4.75266 -16.5049 45.956
CA 7.04206 11.3241 23.8881
CA 29.6446 -1.04121 70.212
CA 10.7293 -38.4629 53.5627
CA 7.39498 11.2705 52.6117
CA -15.2709 8.99732 48.3953
CA 14.5746 -16.2223 83.7603
CA 4.16138 -6.86487 35.832
CA 8.70374 4.05587 92.0688
CA 8.80087 -36.8869 53.9878
CA 12.4163 3.6613 68.7914
CA -3.41627 10.9409 66.4152
CA -21.2841 -5.78042 77.0108
CA 28.0723 -10.567 77.3839
CA -12.1231 2.32416 81.628
CA -0.14078 -16.5934 44.7501
CA 7.8932 -18.5234 80.2217
CA 13.1482 18.8737 66.7853
CA 11.712 -0.277094 88.3449
CA -10.3042 8.1715 45.9826
CA 9.56638 -12.8263 35.5938
CA 1.77298 6.22459 56.7749
CA -21.1177 6.34303 67.1117
CA -19.6589 1.81232 88.2576
CA 14.374 6.86105 82.627
CA -10.5228 3.68379 78.6649
CA 6.40894 6.51595 68.8869
CA 6.80362 -2.40443 64.6982
CA 6.34123 -6.17492 35.4898
CA 7.12147 -21.9379 34.6677
CA 12.9545 -19.7048 82.208
CA 4.51631 -3.03822 41.6977
CA 8.53211 -9.17519 90.5677
CA 23.7695 -7.04538 82.8181
CA 5.46476 13.9081 59.7372
CA 13.6802 1.13057 41.8212
CA 5.09272 -9.00639 49.1075
CA -2.79237 21.1277 74.7922
CA -18.3393 6.22935 72.5222
CA 9.92338 -30.1874 70.9933
CA 6.21657 -15.546 86.907
CA 7.35138 13.6261 17.8761
CA 2.46701 -2.21303 65.6967
CA 8.46916 -7.60888 34.9846
CA 0.133836 2.32366 49.3984
CA 15.0832 -2.90463 74.96
CA 13.0384 -14.2859 33.4925
CA 6.53879 6.1274 62.7514
CA 5.98266 -13.2573 77.3268
CA -0.159815 0.712508 66.2701
CA -15.8673 1.4106 64.5455
CA 30.834 -9.60046 77.5982
CA 19.8156 5.90073 22.9351
CA 25.8105 -10.6536 78.8609
CA 11.8295 -18.2437 79.8519
CA 3.34289 -4.69766 73.4691
CA 11.6266 -19.8443 52.7194
CA 24.8503 10.1571 64.0494
CA 15.938 4.76806 17.441
CA 6.30278 -36.8076 56.1195
CA -1.78766 -5.40925 57.0283
CA 15.6382 -4.23653 61.7317
CA 17.7031 2.52377 66.9316
CA 30.8637 0.940626 70.2271
CA 34.3683 -18.7526 70.8781
CA 5.81762 -36.8201 59.3255
CA 13.7877 -1.13692 63.5612
CA -6.89071 1.57555 55.8341
CA 31.0379 3.49585 74.7623
CA -1.03131 -30.4665 37.1376
CA 1.00897 4.33172 63.3922
CA 10.7007 -3.00386 65.54
CA 12.5458 10.0665 11.8799
CA 15.3499 -30.2599 51.1738
CA 2.40261 -29.1296 40.3177
CA 1.60276 0.54049 50.9333
CA 18.6843 -17.1144 56.3577
CA 8.16671 3.64737 61.705
CA 13.6515 -5.66304 73.2432
CA 12.1533 -0.257485 65.8224
CA 18.514 -29.3386 50.1188
CA 14.0604 -6.0426 19.2071
CA 8.44648 -6.3425 83.064
CA -11.5905 1.40563 57.7607
CA 10.8642 14.8201 72.8858
CA 10.3764 -29.0449 68.4103
CA -0.748499 2.33735 81.4185
CA 17.035 1.82538 77.5008
CA 15.6324 -4.23124 76.084
CA 4.56551 -16.2758 49.3184
CA -7.26217 19.8025 24.4033
CA -0.15906 5.90783 56.4116
CA 11.217 -9.09002 44.7322
CA 11.3761 4.08241 75.274
CA 11.65 -6.98335 70.3588
CA 6.65599 18.4717 50.3228
CA -7.22666 3.84475 50.5817
CA -0.301171 6.74751 65.8452
CA 0.656653 -12.4714 45.4445
CA 21.8276 -20.9233 53.584
CA 5.94029 15.1161 17.1372
CA 15.6583 -13.6926 77.8675
CA 4.40922 -32.104 68.2452
CA 2.31041 -5.08122 38.9484
CA -22.3227 -8.39784 77.2344
CA 14.5922 -4.41095 70.5597
CA -5.16394 8.08124 63.8963
CA 4.47792 0.316753 73.8833
CA 8.82381 7.32431 58.4479
CA -6.92401 5.40685 48.2745
CA -1.76801 -33.6448 41.5843
CA 24.1049 -15.9832 54.7122
CA 24.6546 -15.4633 42.4681
CA -17.9316 -0.757206 80.0525
CA 20.7347 -16.4073 55.3303
CA -10.7278 -1.31502 61.7745
CA 12.4985 -5.3513 34.1602
CA 1.53578 1.06543 64.4471
CA -4.34946 -2.70547 54.5755
CA -11.9397 -1.227 44.2218
CA 7.55386 16.1652 17.0193
CA 3.50496 -21.4346 66.5092
CA 16.7452 -16.1397 57.3455
CA 8.37249 3.806 59.8619
CA 7.28785 -2.93589 90.3767
CA -2.74412 19.4873 20.8707
CA -0.909131 14.1925 67.7674
CA 24.8902 -4.89431 72.8754
CA 5.43753 8.01183 62.7023
CA 13.9086 -28.8172 68.2022
CA 11.0148 -8.85437 91.75
CA 5.22933 -20.5427 45.3228
CA 11.9376 -16.8405 50.7406
CA 22.8728 -10.5364 44.0349
CA 9.86322 18.1039 47.8423
CA -11.0567 -6.10399 44.9709
CA 9.04388 16.1719 15.0326
CA 7.58384 10.9563 70.0201
CA -21.9225 5.64566 74.4648
CA 0.498962 -16.676 52.7797
CA 10.1112 1.95161 61.4171
CA -1.77519 -2.33829 56.0166
CA 12.5794 -5.12432 22.0735
CA 8.2937 25.0866 46.6204
CA -6.24158 -25.0894 62.4573
CA 5.80584 -1.72693 62.3152
CA -1.81771 -29.8724 43.4279
CA 19.5908 -12.9034 57.8932
CA 10.4787 -36.1518 54.2607
CA 4.23606 -13.5842 84.8299
CA 15.2276 6.33246 78.2162
CA 7.75987 -9.82118 49.5934
CA 7.15453 -6.59204 41.5932
CA 25.5878 -5.76032 35.2193
CA 15.3408 8.71684 81.1982
CA 12.3683 24.9987 38.102
CA -9.45711 2.91124 66.5652
CA -15.1381 4.83974 71.2483
CA 1.62635 8.11045 56.3375
CA 24.8654 -12.6794 47.7297
CA -0.0990106 22.7302 16.2756
CA 5.63944 -5.67881 89.3862
CA -3.75047 3.44936 77.8939
CA 9.39189 -5.61265 47.9923
CA 16.7141 -2.82575 63.5338
CA 22.814 -6.03345 74.9759
CA 11.9758 3.39898 10.1242
CA 10.9139 -2.80699 40.7045
CA -1.13003 7.76789 60.5236
CA -3.02034 1.44996 76.7818
CA -6.04168 10.6122 71.8754
CA 6.34637 -5.58077 72.2703
CA 30.6664 -20.004 65.6037
CA 24.8545 -8.67069 47.4947
CA -6.30352 19.8169 17.4564
CA 13.0075 31.9501 38.3854
CA 17.2318 -2.36062 17.6059
CA 20.5915 -16.0807 52.7736
CA 0.600498 -6.08509 89.1971
CA 1.32477 -31.5842 43.9519
CA 7.65667 -0.137286 61.7906
CA -6.62345 26.3197 18.3727
CA 4.47978 2.02001 7.88173
CA -5.10909 8.723 66.2106
CA -0.0425132 15.8342 67.2724
CA 18.1414 -4.03038 74.2162
CA 22.3293 -16.6049 54.0893
CA 11.8664 -5.70908 32.1724
CA 7.72527 -32.0373 67.9833
CA 23.836 -2.52785 73.2866
CA -4.60993 1.65354 74.0417
CA -1.51855 -14.1572 42.4445
CA 6.17718 -33.411 65.4103
CA 2.86015 -11.6404 44.0324
CA 3.51644 -14.2987 65.5117
CA 20.3542 -12.4094 82.1506
CA 5.35842 -2.06063 55.4498
CA 24.1311 -9.4081 80.2491
CA 18.0258 1.49184 30.4194
CA 9.6365 17.1067 17.0808
CA 4.30824 9.83085 59.9603
CA -16.8113 5.43382 73.7525
CA 8.01998 0.0897067 57.6332
CA 24.9259 -11.9148 57.8131
CA -10.3325 -3.5297 43.1456
CA 14.0815 -17.7744 50.5136
CA -7.57376 29.0433 19.1071
CA 7.42492 -3.48021 87.6103
CA 29.0092 -17.1703 61.5684
CA 7.96664 -9.11681 97.3088
CA 26.249 -6.83925 73.1362
CA 23.1814 -6.50424 38.1673
CA 21.8395 -8.67245 77.5041
CA 6.36107 -3.59329 56.554
CA 4.04594 -9.81389 61.0395
CA 23.8933 -7.02428 78.9143
CA 6.13818 -30.0347 75.0917
CA 11.8413 13.9411 68.5477
CA -9.62151 -1.55839 78.8683
CA 8.06456 -24.8886 67.6126
CA 11.7157 0.0869193 93.7412
CA 19.4251 -2.73722 89.4969
CA -0.756237 5.33375 64.5687
CA 6.52125 -12.5335 83.1915
CA 16.0255 -3.05548 55.8235
CA 13.8608 26.5811 49.4493
CA 0.505502 -2.51541 77.2455
CA -13.3668 -12.0726 54.5659
CA 14.9394 -12.3184 46.5901
CA -0.773442 -31.9468 38.7755
CA -6.40254 1.19375 53.8368
CA 11.0312 -8.97317 64.1481
CA 7.87548 -4.34852 62.5916
CA -3.18839 -17.171 56.0886
CA -3.72748 -23.113 67.0783
CA 9.3063 -12.7961 95.894
CA 21.2289 -7.14888 42.7962
CA 19.1272 -0.495139 94.3471
CA 16.3535 18.7085 67.6598
CA 6.16812 -16.0794 64.4572
CA -1.19885 -1.50959 41.1415
CA 2.10593 6.96497 54.0569
CA 22.4288 -18.8709 49.6793
CA 4.9725 -9.44162 63.6444
CA 9.43306 -9.07642 74.4713
CA 18.3682 -8.45998 18.9977
CA 15.1936 -8.37555 73.8999
CA 15.2018 0.0590148 84.6649
CA 22.9358 -5.63263 71.7325
CA -5.07187 -23.9419 64.3328
CA 6.53395 -33.0256 74.8378
CA 8.69333 -11.597 75.0758
CA 27.8306 -1.60633 70.9634
CA -1.57556 -17.0472 57.1794
CA 10.3541 5.00218 19.6401
CA 8.07006 -13.8813 90.9442
CA 26.2278 -7.76063 76.0133
CA -7 2.35438 76.9443
CA -1.4104 17.3401 68.6051
CA -8.11542 -0.939276 55.2873
CA 4.16229 0.950896 63.9369
CA 17.6798 -25.7274 48.9949
CA 17.0052 -2.36767 85.8323
CA 10.5625 -5.47226 51.7201
CA 0.0254977 -26.0523 79.604
CA 19.3514 6.487 62.6805
CA 4.49201 -14.0081 48.0511
CA 6.41777 -20.2982 68.8061
CA 4.22496 -15.4928 72.7995
CA 17.4262 -1.00983 83.643
CA 26.5036 -8.50731 46.7364
CA 11.6903 6.04653 7.04427
CA 9.29217 8.91037 22.0027
CA 28.9895 11.5369 65.3983
CA -4.692 22.1415 71.8114
CA 20.5305 -23.8114 51.9389
CA -9.11476 1.37254 75.8863
CA 29.665 -13.984 38.8716
CA 8.87385 7.31376 63.7986
CA 32.4176 -18.729 69.1713
CA -18.6864 3.57484 75.5131
CA 12.4168 -29.7217 66.7194
CA 25.0044 -5.90493 41.3741
CA 26.9208 -11.8384 45.3711
CA -13.2812 -10.0175 61.2602
CA 27.8483 -23.0124 63.4713
CA -18.4166 -4.94067 80.7
CA 0.954909 -23.559 68.6153
CA 18.5338 -12.0336 47.249
CA 16.3938 1.24281 11.4601
CA 14.3402 -17.8806 89.3286
CA 12.0468 24.5705 45.5215
CA 13.7464 -16.3794 51.7808
CA 11.9527 -0.430343 74.3866
CA -3.54376 6.57298 60.6315
CA 16.6257 -4.77496 71.9893
CA 5.24676 -15.1806 83.544
CA 12.2044 -2.46407 42.5241
CA 15.3183 2.92085 21.8262
CA -17.4706 3.32155 68.4572
CA 11.531 2.95734 62.4727
CA 15.103 4.4276 62.3416
CA 13.7864 2.0128 28.0944
CA 15.4289 -1.39118 64.532
CA -19.374 -7.70146 77.4188
CA 6.56878 -12.949 42.7541
CA 4.37966 12.3158 17.1469
CA 8.67947 18.8334 52.2778
CA 12.2811 -16.1485 78.9793
CA 4.96802 16.4918 19.7889
CA -13.2024 33.3784 18.9639
CA -9.54579 4.43727 47.2466
CA 3.61276 -11.291 69.0131
CA 16.9153 -0.734494 93.2936
CA 11.9331 -14.6738 87.586
CA 21.8559 -20.8004 46.2669
CA 8.7375 -6.52034 63.0315
CA -2.1104 2.61592 60.1459
CA 26.6771 -18.7612 48.8476
CA 16.056 -15.0675 84.0366
CA 6.86904 -8.04607 83.7773
CA 15.6782 -2.31661 26.1304
CA -9.6881 34.1523 18.8454
CA 19.9611 -22.1639 50.4518
CA 0.437016 -6.17495 32.4646
CA 29.1577 -23.1355 44.0307
CA 7.10963 -16.8768 35.7843
CA 16.7153 14.1668 66.6946
CA 11.4879 10.071 7.27705
CA 7.41207 5.75052 20.6484
CA 6.60304 13.3279 50.8038
CA -7.13491 15.7945 71.2682
CA -0.839933 0.205735 75.8471
CA 12.3524 28.7597 41.6566
CA 20.1367 -15.2379 79.546
CA 9.4238 -11.6131 67.4378
CA 4.81678 -22.3487 67.3417
CA 19.0133 0.315623 88.2013
CA 7.03364 -0.250167 59.6651
CA 21.9003 3.26451 17.7217
CA -5.76503 22.5193 15.7177
CA 5.19112 -11.3904 40.8806
CA -9.44496 1.21593 53.5109
CA 13.0536 3.23861 76.7754
CA 18.8087 -14.9021 52.5925
CA -12.7961 35.5407 17.0916
CA 4.21171 -6.16251 64.3938
CA -4.40465 4.6665 67.2171
CA 5.80494 -23.5922 38.5745
CA -13.2314 -4.02716 50.632
CA 18.0919 -6.56004 44.3823
CA 0.593972 -12.1426 40.8711
CA 8.92912 -16.8291 82.1491
CA -2.0541 6.25593 62.2683
CA 17.0827 -1.13857 22.8967
CA 12.9861 -8.71615 42.4755
CA 4.92368 -34.3714 57.9922
CA 26.3798 -13.5876 45.8397
CA -1.39973 -12.6751 44.0829
CA 8.24665 -6.06272 89.1081
CA 26.4047 -21.0852 52.1615
CA -8.11502 10.1975 70.0149
CA 6.33262 -10.201 35.731
CA 3.4894 -15.202 42.1261
CA 11.369 -19.2803 47.1571
CA 4.29205 -1.52119 77.3249
CA 8.16484 -36.5216 59.9106
CA 21.1149 8.35072 62.3526
CA -12.4132 4.6123 72.5504
CA 30.5298 -11.9428 38.2848
CA 9.19591 22.099 51.4481
CA 7.26066 8.1082 61.1298
CA -0.511694 -32.6865 45.5352
CA 10.5448 12.341 18.0837
CA 7.62535 7.89778 7.12064
CA 15.9356 1.8299 9.13184
CA 28.0302 -4.95684 31.5197
CA 30.5175 -18.7819 68.9688
CA 14.2808 1.55665 91.1412
CA 2.0086 -30.0789 75.9752
CA 18.5208 -16.3731 59.5705
CA 27.4876 -13.1761 63.1047
CA 5.81915 4.64226 7.20072
CA 1.93987 -30.453 79.1741
CA 14.2412 -1.06769 61.288
CA 12.2657 -2.7642 69.0482
CA -12.2882 -8.60662 58.3356
CA 25.8818 -21.2296 44.6109
CA 17.1594 -4.33535 57.5585
CA 7.68557 -7.6828 65.6377
CA -11.378 -5.17779 59.1104
CA 1.48065 -4.91565 65.3377
CA -1.5116 -22.1739 69.8455
CA -5.59409 0.233683 58.0486
CA 20.1484 -29.7086 47.6459
CA 13.4754 -4.26314 67.6221
CA 7.42169 -11.6232 77.151
CA 14.4653 7.02093 13.7551
CA 15.2901 22.633 42.619
CA 15.046 -0.259954 66.1475
CA 2.5137 -16.9684 74.1498
CA 7.60015 -6.25647 77.2616
CA 2.01818 8.19074 67.3276
CA -16.6085 1.35613 82.0693
CA 8.71355 1.05436 79.4242
CA 18.1209 -30.3611 45.3797
CA -7.5496 0.582436 78.674
CA 10.0795 10.2582 16.1296
CA 6.16288 -10.8841 94.8522
CA 18.7055 -28.6934 44.1233
CA 10.8905 -27.4174 66.5091
CA 13.6257 -20.4395 49.6308
CA -3.30394 -2.08398 59.1096
CA 13.6209 -4.46221 32.4778
CA 12.0652 2.84391 66.3476
CA 28.4817 -11.6163 60.8259
CA 28.8795 -9.05811 64.3754
CA 2.0113 22.4932 18.1638
CA 0.193043 -15.8405 57.0927
CA -2.74091 2.47837 52.7517
CA 22.3836 6.93848 17.9849
CA 5.31295 -7.10725 53.6923
CA 7.42239 6.55237 55.9517
CA 13.4317 -10.0474 77.5101
CA -3.31284 20.4921 72.5077
CA 20.5405 -6.0018 40.957
CA 3.84767 -29.3799 78.5317
CA 9.81689 -3.69927 58.5244
CA 1.18636 18.5191 19.9931
CA 5.4792 -18.6086 67.0325
CA 25.3411 -17.3678 40.0391
CA 3.31654 14.2523 50.2523
CA -14.508 -0.218417 52.2153
CA -20.884 4.80928 83.7252
CA 8.99257 -13.7078 69.7009
CA 23.5541 -5.07895 36.687
CA -6.50377 -6.64345 45.3223
CA -3.13764 -27.9599 39.7437
CA -12.06 6.21135 45.9858
CA 24.9802 -13.9778 50.7106
CA 10.3896 22.4886 48.8868
CA 11.6988 7.49219 60.65
CA -3.7599 -22.6228 72.5888
CA -5.03573 -9.13827 45.5452
CA 3.642 -5.08887 94.3741
CA -20.1023 -0.861069 88.0765
CA -10.1917 12.5797 67.1434
CA 5.91062 -5.23583 87.5248
CA -16.6334 5.69007 69.2391
CA 8.98601 5.05958 7.42455
CA 17.0303 -11.4656 53.5689
CA 2.89099 -26.7972 40.5272
CA -9.66212 -3.65843 39.0618
CA 18.9349 11.1506 28.3682
CA 18.8342 -14.2311 76.3934
CA 5.43524 -4.32735 47.874
CA 14.971 -4.42789 83.907
CA 24.4711 -1.48687 32.1382
