489

CA -17.4871 1.10303 52.4999
CA 14.6239 1.77142 69.3671
CA 19.0352 4.82841 52.5415
CA 2.05217 13.4116 68.4005
CA 14.0707 -17.1892 80.3403
CA 12.7334 -1.78842 85.5955
CA -2.90105 2.56413 59.7469
CA 9.73415 5.52506 56.4786
CA 5.37431 -40.5017 59.1485
CA 7.69435 0.914528 70.9195
CA 11.6686 11.9687 69.6278
CA 4.40048 6.883 59.7775
CA -8.33294 9.47755 77.2466
CA 7.32971 1.55145 65.7715
CA -10.5298 0.819724 60.4076
CA 11.6995 -10.0388 93.7434
CA 16.4324 -10.8347 32.0393
CA 4.54747 -10.0275 90.0047
CA 12.3258 -11.7769 36.9544
CA 2.57851 -4.60958 62.6253
CA -0.901387 -23.8734 39.0736
CA 13.0908 -15.9853 71.3725
CA 12.4076 -6.95944 27.2964
CA 5.8235 -25.9251 69.2172
CA 14.3114 -0.288225 74.6236
CA 20.3863 -14.0737 77.8706
CA -14.7521 0.144461 47.6355
CA 13.955 -2.06988 67.2431
CA 13.2987 -6.01815 28.598
CA 15.6513 -3.29238 67.8568
CA 3.65557 13.3703 18.9882
CA 0.653902 17.1947 65.7462
CA 5.09882 -12.0103 46.7811
CA -6.42509 9.97145 66.2007
CA 14.5972 -2.01472 33.3185
CA 7.39498 11.2705 52.6117
CA -15.2709 8.99732 48.3953
CA 25.9293 -27.0482 63.5055
CA 26.1579 -2.27178 33.6484
CA 6.37939 23.4161 48.7921
CA 3.05045 -9.69989 68.314
CA 12.4163 3.6613 68.7914
CA -6.09679 -9.07603 53.9614
CA -13.9609 6.67549 49.2371
CA -0.249792 -25.3095 67.9318
CA -12.1231 2.32416 81.628
CA 6.38123 8.72498 62.6315
CA 2.95992 10.1767 16.4563
CA 13.1482 18.8737 66.7853
CA 24.1261 -6.34695 70.4649
CA 30.1809 -8.46872 80.2246
CA 9.56638 -12.8263 35.5938
CA 1.77298 6.22459 56.7749
CA -21.1177 6.34303 67.1117
CA 10.9755 -14.8668 68.2623
CA 14.374 6.86105 82.627
CA 7.9894 22.135 16.248
CA 6.40894 6.51595 68.8869
CA 8.49507 6.05916 61.8311
CA 6.34123 -6.17492 35.4898
CA 7.12147 -21.9379 34.6677
CA 12.9545 -19.7048 82.208
CA 19.3117 0.664068 97.9135
CA 20.6007 7.85384 26.4896
CA 10.8694 -33.0184 61.7502
CA 5.46476 13.9081 59.7372
CA -5.73621 3.05266 62.3388
CA -1.53783 1.04997 39.3594
CA 8.40895 -1.03566 74.3656
CA 17.8258 -27.4311 52.0657
CA 9.92338 -30.1874 70.9933
CA 6.21657 -15.546 86.907
CA 7.35138 13.6261 17.8761
CA 2.46701 -2.21303 65.6967
CA -1.24859 -12.6188 40.7299
CA 8.31115 -38.62 59.2682
CA 15.0832 -2.90463 74.96
CA 14.4631 -6.45627 75.2192
CA -15.1101 2.93677 72.2595
CA 21.3884 -1.12201 72.6395
CA -4.77429 -24.9449 70.7497
CA 24.3559 -21.256 46.9889
CA 5.11197 12.1746 21.5768
CA 19.8156 5.90073 22.9351
CA 25.8105 -10.6536 78.8609
CA 24.3958 -17.7655 53.0736
CA 7.42655 -4.89589 93.0335
CA 1.07475 2.31184 53.512
CA -2.17719 10.9442 60.588
CA 15.938 4.76806 17.441
CA 21.4961 -28.9662 50.6758
CA 2.0521 -22.8912 70.2313
CA -12.6791 -3.62833 45.3118
CA 4.97549 -24.4174 71.5408
CA 30.8637 0.940626 70.2271
CA 4.57254 -5.24232 63.7134
CA 15.6225 2.40248 53.4949
CA -14.6585 8.49393 52.5891
CA 20.8858 -26.6691 50.5311
CA -3.23038 6.21253 68.488
CA -1.03131 -30.4665 37.1376
CA 1.00897 4.33172 63.3922
CA 9.38076 -6.90473 38.8587
CA 12.5458 10.0665 11.8799
CA 16.3022 5.96863 64.8531
CA 10.6837 -13.3272 63.96
CA 1.60276 0.54049 50.9333
CA -6.28765 7.86468 46.9269
CA 8.16671 3.64737 61.705
CA 26.6379 -13.5525 39.8173
CA 15.831 1.67333 20.3246
CA -5.73256 5.5961 65.0987
CA 14.0604 -6.0426 19.2071
CA 8.44648 -6.3425 83.064
CA 18.7649 -6.9445 60.3237
CA 7.44763 -25.5308 66.0591
CA 28.6529 -16.5764 76.2988
CA 25.0934 -28.0196 51.0492
CA 8.55225 6.51721 68.6841
CA 15.6324 -4.23124 76.084
CA 4.56551 -16.2758 49.3184
CA 24.1563 -12.1995 82.8848
CA -0.15906 5.90783 56.4116
CA -2.75184 -10.0342 47.9717
CA 11.3761 4.08241 75.274
CA 6.21843 -11.3109 78.8229
CA 6.65599 18.4717 50.3228
CA -7.22666 3.84475 50.5817
CA 3.32276 -13.9866 43.3
CA 0.656653 -12.4714 45.4445
CA 21.8276 -20.9233 53.584
CA 1.90007 9.01516 69.3437
CA 15.6583 -13.6926 77.8675
CA 17.8226 -15.3237 55.3689
CA 0.0349835 2.46797 38.8036
CA 5.7827 -10.7275 45.0573
CA 14.5922 -4.41095 70.5597
CA -5.16394 8.08124 63.8963
CA 4.47792 0.316753 73.8833
CA -14.6487 1.97825 81.8925
CA -1.81235 -0.0240985 55.9499
CA 6.7 -4.73952 84.076
CA 24.1049 -15.9832 54.7122
CA 24.6546 -15.4633 42.4681
CA 11.8019 11.1426 66.2648
CA 20.7347 -16.4073 55.3303
CA 28.2374 -6.23451 70.7061
CA 12.4985 -5.3513 34.1602
CA 22.7442 -4.17906 70.1652
CA -4.34946 -2.70547 54.5755
CA 6.02949 0.840604 59.4671
CA -1.34614 1.17909 53.9343
CA -9.58469 7.03293 71.2469
CA 10.3496 7.16214 15.5574
CA 12.7109 -2.29651 36.1408
CA 7.28785 -2.93589 90.3767
CA 11.725 -6.5883 20.8528
CA 4.94367 -8.82492 68.9273
CA 18.7269 -10.8828 89.9122
CA 1.81293 1.943 55.4017
CA 14.2238 -13.0358 35.5491
CA 9.12338 -12.4041 38.8914
CA -4.38883 -4.11971 39.9506
CA 11.9376 -16.8405 50.7406
CA 22.8728 -10.5364 44.0349
CA 6.89646 17.2459 15.5467
CA 14.6986 -7.79372 91.3938
CA 13.4161 21.0139 66.6227
CA 7.58384 10.9563 70.0201
CA -21.9225 5.64566 74.4648
CA 0.498962 -16.676 52.7797
CA 10.1112 1.95161 61.4171
CA 19.31 8.39514 64.1144
CA 22.4898 -8.77897 43.6858
CA 8.2937 25.0866 46.6204
CA -20.9596 -4.6168 78.8498
CA 0.550032 10.9792 69.7738
CA 3.90438 -17.7761 42.0101
CA 19.5908 -12.9034 57.8932
CA 26.2551 -8.50881 83.852
CA 8.12691 -14.3028 41.7285
CA 15.2276 6.33246 78.2162
CA 28.6618 -17.2104 50.4152
CA 12.7999 16.5703 69.0654
CA 8.08396 -4.88522 40.1742
CA -3.34979 -1.58704 50.42
CA 8.8914 -17.9666 86.9942
CA 28.4279 -23.7037 68.4163
CA 20.6733 -20.8664 49.1086
CA 17.4976 -0.784609 68.7614
CA 4.08183 -16.5075 69.1913
CA -0.0990106 22.7302 16.2756
CA 9.64293 6.37732 52.0499
CA 2.0933 -7.3138 69.0343
CA 9.39189 -5.61265 47.9923
CA -12.3242 -3.92148 55.4639
CA 2.9539 8.18492 61.9848
CA 28.9939 -27.1337 61.8905
CA 10.9139 -2.80699 40.7045
CA -7.13387 4.31537 58.9828
CA 0.182092 -10.6258 68.1402
CA 27.196 -16.6057 52.5243
CA 1.68619 13.859 49.5431
CA 30.6664 -20.004 65.6037
CA -11.5317 4.92035 62.6807
CA 2.81781 -30.7245 65.0803
CA 11.6663 -6.58133 75.8587
CA 16.0308 0.114539 7.33618
CA 17.1898 1.91795 92.8131
CA -5.1213 6.94417 57.5549
CA 1.32477 -31.5842 43.9519
CA 2.93983 15.932 62.8494
CA -6.62345 26.3197 18.3727
CA 4.47978 2.02001 7.88173
CA -5.10909 8.723 66.2106
CA 2.75962 -11.8633 77.3666
CA -1.31007 19.0597 18.8146
CA 22.3293 -16.6049 54.0893
CA 12.0767 6.4456 13.4772
CA 7.72527 -32.0373 67.9833
CA 23.836 -2.52785 73.2866
CA 8.96894 -5.94125 91.8768
CA -1.51855 -14.1572 42.4445
CA 5.06329 -0.162338 7.04113
CA 24.6207 -5.13433 68.5183
CA 3.51644 -14.2987 65.5117
CA -17.1321 5.74453 47.5843
CA 15.0671 -6.57335 38.3728
CA 24.1311 -9.4081 80.2491
CA -0.845687 -5.18687 37.8571
CA 9.6365 17.1067 17.0808
CA 4.30824 9.83085 59.9603
CA -16.8113 5.43382 73.7525
CA -2.48272 6.37432 51.436
CA 1.79218 -18.1862 44.0941
CA -10.3325 -3.5297 43.1456
CA 16.0274 -6.89435 20.5084
CA -7.57376 29.0433 19.1071
CA 13.9155 -8.15794 21.0256
CA 29.0092 -17.1703 61.5684
CA 18.5316 -8.04627 57.1113
CA 26.249 -6.83925 73.1362
CA -4.81546 -8.83448 52.0377
CA -3.97788 -0.431239 76.724
CA 6.36107 -3.59329 56.554
CA 4.04594 -9.81389 61.0395
CA -8.42248 3.7261 65.9898
CA 6.13818 -30.0347 75.0917
CA 11.8413 13.9411 68.5477
CA -9.62151 -1.55839 78.8683
CA 4.74031 -20.4364 62.8705
CA 11.7157 0.0869193 93.7412
CA 19.4251 -2.73722 89.4969
CA -0.920565 0.992116 63.8842
CA 6.52125 -12.5335 83.1915
CA 16.0255 -3.05548 55.8235
CA 6.76808 -0.274235 65.7608
CA 21.0224 -8.69713 46.0967
CA 7.65786 -18.0244 91.1421
CA -7.79203 -0.00466374 76.8107
CA -0.773442 -31.9468 38.7755
CA 26.223 -0.730703 71.1803
CA 7.56163 -9.45795 76.1106
CA 7.87548 -4.34852 62.5916
CA 3.0116 -2.81727 73.8429
CA -3.72748 -23.113 67.0783
CA 28.1996 -21.2454 62.2879
CA 9.13102 11.6394 62.2792
CA 19.1272 -0.495139 94.3471
CA 16.3535 18.7085 67.6598
CA 6.16812 -16.0794 64.4572
CA -1.19885 -1.50959 41.1415
CA 20.704 -9.81206 77.6167
CA 12.2788 15.3888 70.7519
CA -7.34327 -6.54331 49.041
CA 9.43306 -9.07642 74.4713
CA 18.3682 -8.45998 18.9977
CA 21.3142 -8.76186 18.353
CA 14.4828 6.59728 9.15118
CA -1.07421 -26.9878 66.323
CA 9.75002 4.91767 53.3635
CA -10.4021 -7.03951 54.1209
CA 8.69333 -11.597 75.0758
CA -7.62908 11.5408 46.2079
CA 7.44153 -12.6337 68.3446
CA 10.3541 5.00218 19.6401
CA 8.07006 -13.8813 90.9442
CA 26.2278 -7.76063 76.0133
CA 5.31349 10.0547 15.6821
CA -1.4104 17.3401 68.6051
CA -7.15495 16.1975 68.7719
CA 11.7474 -2.39777 89.2275
CA 17.6798 -25.7274 48.9949
CA 0.448086 -16.1199 55.8617
CA 13.8168 1.79683 52.6802
CA -4.02908 -21.9357 68.5519
CA -21.8035 -0.00232554 81.9462
CA 17.8586 -9.48551 48.0304
CA 24.0256 -3.64829 34.0352
CA 4.22496 -15.4928 72.7995
CA 8.60458 -3.66971 42.0665
CA 26.5036 -8.50731 46.7364
CA -1.9396 2.03455 61.9454
CA 9.29217 8.91037 22.0027
CA 6.76976 -17.3401 75.1908
CA 4.27955 11.8321 19.7214
CA 8.02562 -1.86796 62.8546
CA 16.6355 18.8283 65.8239
CA 29.665 -13.984 38.8716
CA 3.52223 -9.45347 87.4774
CA 32.4176 -18.729 69.1713
CA -17.1865 3.03873 72.2593
CA 12.4168 -29.7217 66.7194
CA 6.82985 -14.804 63.1679
CA 6.55915 7.55288 58.3305
CA -5.73863 4.39212 52.237
CA -13.844 4.15784 74.2893
CA -6.23432 10.411 74.2137
CA 0.954909 -23.559 68.6153
CA 18.5338 -12.0336 47.249
CA -1.22082 7.18998 57.9753
CA 7.35403 -12.4247 71.7442
CA 12.0468 24.5705 45.5215
CA 13.7464 -16.3794 51.7808
CA 20.0363 -29.8754 53.0739
CA 13.8043 -1.17265 91.8711
CA 27.2404 3.13689 72.3114
CA 22.189 -1.78077 75.58
CA 12.2044 -2.46407 42.5241
CA 15.3183 2.92085 21.8262
CA -17.4706 3.32155 68.4572
CA 11.531 2.95734 62.4727
CA 15.103 4.4276 62.3416
CA 3.48123 -18.0273 47.675
CA -8.43892 4.25192 77.4875
CA 33.3212 1.01828 69.9097
CA -7.9149 -6.41064 42.6291
CA 4.37966 12.3158 17.1469
CA 15.0509 -1.63603 29.3785
CA 17.3871 -3.24538 68.8291
CA 4.96802 16.4918 19.7889
CA -4.66801 -29.8596 37.1796
CA -9.54579 4.43727 47.2466
CA 3.61276 -11.291 69.0131
CA 15.297 -1.90304 86.1905
CA 11.9331 -14.6738 87.586
CA 21.8559 -20.8004 46.2669
CA 14.1073 10.5523 14.5331
CA -19.0404 2.55351 84.0576
CA 5.61862 15.5632 57.4701
CA 17.316 -0.137837 55.1394
CA -13.0441 0.425816 77.451
CA 15.6782 -2.31661 26.1304
CA -9.6881 34.1523 18.8454
CA -13.6312 0.226932 75.4073
CA 6.23792 -12.76 64.5653
CA -11.5332 4.45754 74.5585
CA 7.10963 -16.8768 35.7843
CA 10.7964 -4.9568 91.4394
CA 11.4879 10.071 7.27705
CA 14.0723 -5.84439 78.1523
CA -11.5312 1.14095 44.9822
CA 6.01303 15.0646 52.8216
CA 4.99426 -20.6129 91.9607
CA 12.3524 28.7597 41.6566
CA 20.1367 -15.2379 79.546
CA 9.4238 -11.6131 67.4378
CA 4.81678 -22.3487 67.3417
CA 19.0133 0.315623 88.2013
CA -19.6517 0.602568 79.9897
CA 21.9003 3.26451 17.7217
CA -5.76503 22.5193 15.7177
CA -1.5552 12.2639 72.9066
CA 12.2429 -1.55496 66.2515
CA -0.3792 2.87831 59.403
CA 26.0909 -14.3697 76.8154
CA 0.752601 -27.5763 78.5347
CA 3.55685 18.5432 21.0985
CA 5.22277 -13.0575 89.4568
CA 5.80494 -23.5922 38.5745
CA -13.2314 -4.02716 50.632
CA 18.0919 -6.56004 44.3823
CA -14.4215 -2.1127 49.8522
CA -9.77613 10.9444 69.984
CA 6.01629 -16.9629 44.4677
CA 17.0827 -1.13857 22.8967
CA 12.9861 -8.71615 42.4755
CA 16.1785 7.29939 16.4344
CA 26.3798 -13.5876 45.8397
CA 8.57831 -10.1604 39.908
CA 8.24665 -6.06272 89.1081
CA -4.43024 3.23984 52.8072
CA -8.11502 10.1975 70.0149
CA 6.33262 -10.201 35.731
CA -1.86707 -4.64704 39.7516
CA -7.21467 8.22421 54.507
CA 22.1707 -8.76438 66.2062
CA 8.16484 -36.5216 59.9106
CA 17.7267 -7.335 46.2007
CA 1.5436 -10.8486 66.1038
CA 30.5298 -11.9428 38.2848
CA 7.44547 -27.9153 70.3968
CA 4.36384 -31.3547 59.6127
CA -11.1613 -3.19059 57.8951
CA 10.5448 12.341 18.0837
CA 11.5066 5.03518 60.0934
CA 15.9356 1.8299 9.13184
CA 28.0302 -4.95684 31.5197
CA 2.23005 8.79147 59.4676
CA 14.2808 1.55665 91.1412
CA 26.0065 -24.8402 64.3895
CA -9.46126 3.81008 63.602
CA 21.4797 -5.78704 40.1232
CA 5.81915 4.64226 7.20072
CA 25.2463 -10.6138 43.0523
CA 14.2412 -1.06769 61.288
CA -13.4136 -1.07622 45.8619
CA -15.2652 1.30836 83.669
CA 25.8818 -21.2296 44.6109
CA 17.1594 -4.33535 57.5585
CA 4.71468 6.05392 62.3516
CA -14.9287 1.063 78.7018
CA 1.48065 -4.91565 65.3377
CA 1.06036 -12.4258 41.7207
CA -5.59409 0.233683 58.0486
CA -8.81347 7.99722 68.4852
CA 13.4754 -4.26314 67.6221
CA 8.68829 6.71149 59.7706
CA 2.58302 -8.77318 91.2037
CA 10.3394 -0.664892 66.9335
CA 10.8762 -0.670757 55.0029
CA 26.305 -19.5364 50.5023
CA 0.351175 -25.4841 39.2632
CA 3.81329 -0.18489 62.643
CA -16.6085 1.35613 82.0693
CA 8.71355 1.05436 79.4242
CA 14.7874 8.05735 20.2943
CA 9.12002 -2.35997 77.8147
CA 5.62313 -11.1628 68.4257
CA 1.88485 -0.286844 55.8127
CA 4.16639 -25.6946 68.2263
CA 12.0945 9.60541 51.8234
CA -3.68704 7.26999 55.8124
CA -14.8624 4.49053 84.4271
CA 12.7662 5.60066 20.9074
CA 12.0652 2.84391 66.3476
CA 28.4817 -11.6163 60.8259
CA 3.06301 16.0163 69.5409
CA 2.0113 22.4932 18.1638
CA 10.5191 -10.4403 46.0343
CA 14.1485 -4.37775 62.9023
CA 22.3836 6.93848 17.9849
CA 5.31295 -7.10725 53.6923
CA 1.43111 -25.0644 66.1035
CA 13.4317 -10.0474 77.5101
CA 28.3841 -12.2378 55.7367
CA -1.47845 -1.04931 77.2956
CA 25.9391 -5.27326 36.8377
CA 9.81689 -3.69927 58.5244
CA 1.18636 18.5191 19.9931
CA 12.3435 -6.46089 87.9272
CA 25.3411 -17.3678 40.0391
CA 14.9065 -4.79909 21.6549
CA 7.43942 5.2439 58.2602
CA -20.884 4.80928 83.7252
CA 26.424 -5.16033 66.8504
CA 33.0645 -10.617 39.1872
CA 10.8797 5.64098 49.3949
CA -2.11853 5.40205 60.2973
CA 22.5101 -13.9652 46.426
CA 24.9802 -13.9778 50.7106
CA 14.1308 -3.67139 34.8039
CA 11.6988 7.49219 60.65
CA -9.39893 8.98218 63.2118
CA -5.03573 -9.13827 45.5452
CA 15.5458 -27.6224 51.3154
CA -4.7686 1.60527 61.0094
CA -10.1917 12.5797 67.1434
CA 5.91062 -5.23583 87.5248
CA -2.47705 9.84945 58.5207
CA 8.98601 5.05958 7.42455
CA 2.89418 -10.1224 41.4423
CA 2.89099 -26.7972 40.5272
CA -9.66212 -3.65843 39.0618
CA 18.9349 11.1506 28.3682
CA 6.8757 -34.6183 58.8503
CA 5.43524 -4.32735 47.874
CA 14.7693 -6.6235 86.818
CA 24.4711 -1.48687 32.1382
