489

CA 16.2834 1.68205 89.9071
CA 14.6239 1.77142 69.3671
CA 0.313639 5.62473 58.5029
CA 16.3751 1.37163 87.1009
CA 16.6407 -0.828185 15.7289
CA 12.7334 -1.78842 85.5955
CA -2.90105 2.56413 59.7469
CA 13.9871 -18.8583 49.6152
CA 5.37431 -40.5017 59.1485
CA 7.69435 0.914528 70.9195
CA 9.66502 4.88974 62.2823
CA 4.40048 6.883 59.7775
CA -8.33294 9.47755 77.2466
CA 9.47386 -11.8259 86.0806
CA 13.8454 -15.5711 77.0242
CA 11.6995 -10.0388 93.7434
CA 18.618 1.1667 21.4198
CA 4.54747 -10.0275 90.0047
CA 10.8894 -2.9031 83.4939
CA 22.4152 -17.7525 42.2132
CA 11.3357 -13.0592 21.9864
CA 13.0908 -15.9853 71.3725
CA 12.4076 -6.95944 27.2964
CA 31.5594 -15.5708 69.6677
CA -6.37411 6.91085 68.1981
CA 20.3863 -14.0737 77.8706
CA 7.24458 13.5788 63.6589
CA 13.955 -2.06988 67.2431
CA 3.65848 -2.65944 55.1203
CA 11.7869 -0.764306 51.733
CA 3.65557 13.3703 18.9882
CA 7.34785 -11.1225 34.1637
CA 15.8888 -11.5964 78.4421
CA 1.79306 -10.3187 93.3675
CA 14.5972 -2.01472 33.3185
CA 13.9478 -19.2236 89.1353
CA 16.7549 2.36522 92.169
CA 7.09763 9.80895 18.7824
CA -10.057 11.0641 66.1537
CA 6.37939 23.4161 48.7921
CA 5.44331 -17.5333 71.1267
CA 19.1922 -17.3587 58.8338
CA 27.7255 -0.201808 72.647
CA 2.99101 -11.6422 84.2301
CA 1.58265 -13.8252 71.9663
CA -0.110476 19.5072 18.8205
CA 2.00819 4.91499 54.2305
CA 0.279694 -28.4149 38.1629
CA 13.1482 18.8737 66.7853
CA 24.1261 -6.34695 70.4649
CA 2.14179 -7.57916 75.0705
CA 9.56638 -12.8263 35.5938
CA -12.1108 1.33178 74.7595
CA 11.0213 24.8838 48.9526
CA -13.3312 -4.6137 53.4972
CA 16.6986 2.96868 10.3434
CA 0.0248629 -12.0497 88.9017
CA 6.40894 6.51595 68.8869
CA -1.32758 9.19125 70.0592
CA 6.34123 -6.17492 35.4898
CA 7.12147 -21.9379 34.6677
CA 12.9545 -19.7048 82.208
CA 19.3117 0.664068 97.9135
CA 9.39285 -5.06887 89.3722
CA 23.3119 -5.26482 83.0631
CA 20.0548 -2.78062 57.8186
CA -5.73621 3.05266 62.3388
CA 21.3171 1.64048 92.2082
CA -4.97883 10.6174 68.278
CA 17.8258 -27.4311 52.0657
CA 14.0574 8.98121 57.04
CA 6.21657 -15.546 86.907
CA 18.894 -7.37434 48.3361
CA 2.46701 -2.21303 65.6967
CA 30.04 -16.7047 58.0586
CA 31.3478 -16.7417 66.0611
CA 15.0832 -2.90463 74.96
CA -0.000337265 13.2311 70.0955
CA -15.1101 2.93677 72.2595
CA 15.6482 17.4503 68.0832
CA 13.8406 -5.24255 89.1792
CA 5.03926 21.832 49.2553
CA 5.11197 12.1746 21.5768
CA 19.8156 5.90073 22.9351
CA 4.07951 10.3872 71.0894
CA 24.3958 -17.7655 53.0736
CA 13.5983 6.05631 59.2799
CA -2.17969 -1.85451 59.0813
CA 6.52548 -32.0199 61.3027
CA 15.938 4.76806 17.441
CA 21.4961 -28.9662 50.6758
CA 12.4319 -15.7076 83.9747
CA -0.437221 -22.2273 67.9978
CA 9.67912 2.34354 65.1407
CA 30.8637 0.940626 70.2271
CA 4.57254 -5.24232 63.7134
CA 15.6225 2.40248 53.4949
CA 10.594 8.88668 59.4995
CA 10.0784 -13.7766 79.4168
CA 4.19318 -11.8441 65.923
CA -1.03131 -30.4665 37.1376
CA 15.1428 6.02471 7.53424
CA 9.38076 -6.90473 38.8587
CA 12.5458 10.0665 11.8799
CA 32.0964 -12.5151 69.7482
CA 4.06414 4.93417 60.4106
CA 11.7956 15.0117 64.2826
CA 12.973 -14.9499 78.5578
CA 8.16671 3.64737 61.705
CA -0.977224 8.85322 73.2166
CA -3.21704 13.9234 61.4838
CA -5.73256 5.5961 65.0987
CA 3.48833 -19.4331 77.6519
CA 17.223 15.9108 66.7165
CA 18.7649 -6.9445 60.3237
CA 32.0776 -22.5924 66.0294
CA 28.6529 -16.5764 76.2988
CA 25.0934 -28.0196 51.0492
CA 8.55225 6.51721 68.6841
CA 19.1593 -6.37372 74.6493
CA 0.556054 -14.8868 68.2978
CA 9.60681 -10.7798 38.22
CA 2.22191 -18.779 68.1204
CA -2.75184 -10.0342 47.9717
CA 11.3761 4.08241 75.274
CA 6.21843 -11.3109 78.8229
CA 21.3228 -5.5054 47.0333
CA -3.45468 -12.8961 55.4515
CA 3.32276 -13.9866 43.3
CA 0.656653 -12.4714 45.4445
CA -17.4317 3.11288 76.6942
CA -14.7258 -3.07007 54.4048
CA 15.6583 -13.6926 77.8675
CA 18.7369 -18.1262 79.0383
CA 12.7196 18.4878 15.3118
CA 4.74298 18.6044 50.4304
CA 14.5922 -4.41095 70.5597
CA 11.6666 -10.9184 15.5313
CA 12.1676 -13.397 77.597
CA 6.81385 7.13098 58.4123
CA 10.7608 -1.60893 50.46
CA 14.8186 7.15041 54.2964
CA 24.1049 -15.9832 54.7122
CA 25.858 -5.63694 80.2917
CA 28.1382 -4.95889 74.3952
CA 16.1864 -2.94482 40.1266
CA -6.07229 -3.86785 62.9571
CA 12.4985 -5.3513 34.1602
CA -16.9446 7.54139 77.4819
CA -4.34371 14.8374 46.4396
CA 4.37317 -18.1397 34.9715
CA -1.34614 1.17909 53.9343
CA 12.1594 -12.8588 91.4046
CA 12.5714 -7.48824 16.8699
CA 17.2416 9.1398 66.9299
CA -7.82047 6.36604 75.4611
CA 4.24538 -13.1572 69.0145
CA 33.8302 -17.1033 63.0467
CA 2.20704 9.0162 60.2265
CA -8.29325 2.33919 48.3081
CA -12.9936 6.36282 64.2448
CA -3.32731 11.6085 57.5863
CA 25.6472 -30.2508 50.2024
CA 11.9376 -16.8405 50.7406
CA -6.16529 12.148 47.6269
CA 6.89646 17.2459 15.5467
CA 14.6986 -7.79372 91.3938
CA 13.4161 21.0139 66.6227
CA 9.70964 -12.3698 90.3498
CA 10.6857 -2.59456 47.3527
CA 0.498962 -16.676 52.7797
CA 19.7027 -3.36939 91.3104
CA 13.3983 -4.99326 87.2962
CA 22.4898 -8.77897 43.6858
CA -9.13167 5.34278 49.325
CA 22.3828 -18.5361 55.6871
CA 0.550032 10.9792 69.7738
CA 3.90438 -17.7761 42.0101
CA -7.08637 3.28519 50.5377
CA 26.2551 -8.50881 83.852
CA 23.3448 -34.1382 49.781
CA 15.2276 6.33246 78.2162
CA 7.51458 -17.3369 63.4599
CA 14.5084 -20.0676 54.4453
CA 8.08396 -4.88522 40.1742
CA -3.34979 -1.58704 50.42
CA 5.316 -15.5601 46.1981
CA 28.4279 -23.7037 68.4163
CA 20.6733 -20.8664 49.1086
CA 17.4976 -0.784609 68.7614
CA 4.08183 -16.5075 69.1913
CA -0.0990106 22.7302 16.2756
CA 9.64293 6.37732 52.0499
CA -4.80284 5.49244 62.7616
CA 10.2505 -16.8853 52.1804
CA -12.3242 -3.92148 55.4639
CA 27.8323 -12.4303 42.613
CA 22.0197 -14.7742 61.9618
CA 10.9139 -2.80699 40.7045
CA -7.13387 4.31537 58.9828
CA -1.63917 -12.2225 73.3478
CA -8.1966 10.5687 75.1257
CA 1.68619 13.859 49.5431
CA 30.6664 -20.004 65.6037
CA -12.5591 -0.762922 60.7112
CA 2.81781 -30.7245 65.0803
CA -8.76225 10.3368 47.9092
CA 16.0308 0.114539 7.33618
CA 25.9272 -20.6594 40.673
CA -5.1213 6.94417 57.5549
CA 10.9494 -14.0052 90.4133
CA 11.6742 -4.65102 84.0743
CA -6.62345 26.3197 18.3727
CA 1.7465 -6.94884 95.0511
CA -5.10909 8.723 66.2106
CA 2.75962 -11.8633 77.3666
CA 15.2048 0.642084 53.7215
CA -16.2803 2.5478 73.7445
CA 12.0767 6.4456 13.4772
CA 11.1581 13.6423 68.5984
CA 2.16021 1.68575 62.2045
CA -3.94889 3.35877 56.9756
CA 7.85527 13.1677 52.35
CA 5.06329 -0.162338 7.04113
CA 33.1363 -20.5234 62.198
CA 3.51644 -14.2987 65.5117
CA 1.37496 -6.98282 49.2834
CA 6.42308 -8.82549 84.2333
CA 24.1311 -9.4081 80.2491
CA -0.845687 -5.18687 37.8571
CA 9.6365 17.1067 17.0808
CA 7.22011 -4.10575 37.1637
CA -16.8113 5.43382 73.7525
CA -6.5721 3.15521 46.8915
CA 29.3486 -16.2308 42.0696
CA -10.3325 -3.5297 43.1456
CA 7.03397 -30.3216 67.5117
CA 8.01877 -39.0638 62.8117
CA -12.2297 13.6498 68.1703
CA 29.0092 -17.1703 61.5684
CA 31.3297 -10.4298 57.3777
CA 10.604 -9.02352 38.1191
CA -4.81546 -8.83448 52.0377
CA -3.97788 -0.431239 76.724
CA 6.36107 -3.59329 56.554
CA 23.1749 -6.45803 78.2594
CA -8.42248 3.7261 65.9898
CA -4.07367 0.160211 51.2838
CA 0.187256 -8.42458 72.7084
CA 3.30373 -8.57472 76.2926
CA 4.74031 -20.4364 62.8705
CA 14.7662 6.76745 56.9382
CA -3.19665 -4.30922 49.3316
CA -0.920565 0.992116 63.8842
CA 6.52125 -12.5335 83.1915
CA 14.4701 6.62781 67.9108
CA 9.39866 -5.64341 73.3344
CA -16.5755 -0.955316 71.8088
CA 7.65786 -18.0244 91.1421
CA 4.39208 -5.98013 38.6282
CA 24.6504 -21.7557 46.6633
CA 26.223 -0.730703 71.1803
CA 19.1439 -1.16595 53.0279
CA 2.17155 -13.1244 70.3332
CA -2.70146 -15.3639 71.1363
CA 10.0767 -15.8516 80.2415
CA 17.3905 -1.90849 26.9093
CA 9.13102 11.6394 62.2792
CA 19.1272 -0.495139 94.3471
CA 0.320049 12.5165 47.6949
CA 6.16812 -16.0794 64.4572
CA -1.19885 -1.50959 41.1415
CA 20.704 -9.81206 77.6167
CA 12.2788 15.3888 70.7519
CA 8.49364 4.24861 55.2922
CA 9.43306 -9.07642 74.4713
CA -4.7858 -16.1861 70.2091
CA 0.158623 -19.4344 71.1151
CA -18.679 -1.19508 70.8363
CA -1.07421 -26.9878 66.323
CA 23.8426 -27.8744 61.5244
CA -10.4021 -7.03951 54.1209
CA 8.69333 -11.597 75.0758
CA -7.62908 11.5408 46.2079
CA -0.389602 20.9659 22.6644
CA -2.86784 11.8241 77.2602
CA 4.39836 -34.8149 57.1525
CA 26.2278 -7.76063 76.0133
CA 13.8665 -1.17766 52.7581
CA -5.0314 3.28906 78.6523
CA 5.23555 8.50953 67.2829
CA 10.495 -0.617257 77.3714
CA 17.6798 -25.7274 48.9949
CA 0.448086 -16.1199 55.8617
CA 13.8168 1.79683 52.6802
CA 27.5987 -14.0265 50.2616
CA 5.15718 -0.856076 66.642
CA -7.99596 -2.98427 48.1953
CA 24.0256 -3.64829 34.0352
CA 11.4264 -3.20073 86.5412
CA 5.765 8.7213 59.6813
CA -11.9602 6.92826 78.5523
CA -2.61363 10.964 66.4455
CA -12.3172 -3.43385 47.4568
CA -1.44633 7.36459 68.7988
CA 4.27955 11.8321 19.7214
CA 8.02562 -1.86796 62.8546
CA 0.912828 3.40618 61.0039
CA 29.4382 -15.649 48.7534
CA 3.52223 -9.45347 87.4774
CA 9.51939 -2.47425 55.7405
CA -0.687557 9.47619 66.825
CA 12.4168 -29.7217 66.7194
CA 6.82985 -14.804 63.1679
CA 2.61358 -19.5082 70.8699
CA -5.73863 4.39212 52.237
CA -13.844 4.15784 74.2893
CA -6.23432 10.411 74.2137
CA -8.08891 11.1731 57.5565
CA 18.5338 -12.0336 47.249
CA -1.22082 7.18998 57.9753
CA 23.1079 -6.86326 48.5714
CA 12.0468 24.5705 45.5215
CA 13.7464 -16.3794 51.7808
CA -2.98322 -26.8564 71.7742
CA 20.2776 -11.1029 50.902
CA 18.1785 -15.7736 69.5668
CA 11.6953 -4.69328 24.459
CA 12.2044 -2.46407 42.5241
CA 15.3183 2.92085 21.8262
CA -17.4706 3.32155 68.4572
CA 11.531 2.95734 62.4727
CA 1.83807 -40.7845 61.2381
CA 4.79187 -15.9308 67.4766
CA -8.43892 4.25192 77.4875
CA 18.2621 1.93003 63.334
CA 9.94269 3.74551 60.0512
CA 2.59114 -5.96854 51.6075
CA 15.0509 -1.63603 29.3785
CA 14.878 -4.75953 17.3401
CA -10.8164 3.60838 76.155
CA 17.6058 -2.44049 16.1033
CA -9.54579 4.43727 47.2466
CA 3.61276 -11.291 69.0131
CA 8.40676 -9.67827 93.5866
CA 6.83485 -7.05256 33.0217
CA 21.8559 -20.8004 46.2669
CA 14.1073 10.5523 14.5331
CA -10.0758 -4.0745 55.9964
CA 16.0787 -18.5545 48.4501
CA 17.316 -0.137837 55.1394
CA -13.0441 0.425816 77.451
CA 29.2647 -18.649 65.8448
CA 1.1144 -33.1069 56.111
CA -13.6312 0.226932 75.4073
CA 6.23792 -12.76 64.5653
CA -13.8808 -2.79485 45.5757
CA 7.10963 -16.8768 35.7843
CA -6.44952 -4.68512 45.1609
CA 11.4879 10.071 7.27705
CA -1.95761 -11.0553 42.7298
CA -3.80395 1.6437 76.2867
CA 6.01303 15.0646 52.8216
CA 4.99426 -20.6129 91.9607
CA 23.4134 -30.4411 50.8229
CA 20.1367 -15.2379 79.546
CA -4.65888 -11.1878 40.1761
CA -1.4521 -26.0213 71.0737
CA 19.0133 0.315623 88.2013
CA -19.6517 0.602568 79.9897
CA 25.6976 -29.834 52.8417
CA -5.76503 22.5193 15.7177
CA -1.5552 12.2639 72.9066
CA -6.70243 7.7118 66.535
CA 8.80363 8.08195 67.0559
CA 26.0909 -14.3697 76.8154
CA 2.97236 20.2359 15.7807
CA 3.55685 18.5432 21.0985
CA 5.22277 -13.0575 89.4568
CA 5.80494 -23.5922 38.5745
CA -13.2314 -4.02716 50.632
CA 18.0919 -6.56004 44.3823
CA 24.7154 -23.0827 45.3859
CA 24.2055 -21.4334 53.2925
CA 6.01629 -16.9629 44.4677
CA 17.0827 -1.13857 22.8967
CA 24.3803 6.16996 17.1916
CA 11.4186 0.758028 67.8898
CA 24.8165 -8.21034 40.1915
CA 14.4678 -10.5264 20.048
CA 6.80932 -5.36882 90.5847
CA -4.43024 3.23984 52.8072
CA 14.6018 -19.194 51.6186
CA 6.33262 -10.201 35.731
CA 9.53504 11.954 68.7056
CA -7.21467 8.22421 54.507
CA 22.1707 -8.76438 66.2062
CA 8.16484 -36.5216 59.9106
CA 6.09229 -4.13108 79.3831
CA 15.2788 -2.53529 21.0287
CA 30.5298 -11.9428 38.2848
CA 7.44547 -27.9153 70.3968
CA 4.36384 -31.3547 59.6127
CA -11.1613 -3.19059 57.8951
CA 10.5448 12.341 18.0837
CA 25.0499 -25.9952 63.3194
CA 15.9356 1.8299 9.13184
CA 28.0302 -4.95684 31.5197
CA 25.8746 -29.8315 57.8088
CA 1.41509 -32.7888 58.9459
CA 26.0065 -24.8402 64.3895
CA 2.58599 -18.3466 73.5567
CA 10.0541 -9.10247 91.1052
CA 5.81915 4.64226 7.20072
CA 16.3499 5.45551 70.2754
CA 12.7563 26.2294 45.804
CA -13.4136 -1.07622 45.8619
CA 8.39296 14.9385 17.669
CA -7.62535 12.3592 70.6072
CA -19.3064 -0.757099 85.1947
CA -11.2529 7.16539 45.8238
CA 6.64189 -20.0508 77.2292
CA 27.5856 -5.63799 77.183
CA 1.06036 -12.4258 41.7207
CA -9.34072 3.91642 57.911
CA -4.99813 -9.15209 43.4845
CA 8.86713 -14.4259 92.7649
CA 19.698 0.0781432 76.6516
CA 5.26341 -18.6531 74.9458
CA 4.24027 6.356 63.5014
CA 15.8751 -17.1971 54.0752
CA 26.305 -19.5364 50.5023
CA 2.09918 -12.9681 68.3094
CA 18.3662 6.62488 62.7658
CA 32.353 -19.2502 64.3296
CA 19.5982 -6.77723 15.8272
CA -13.1788 12.3102 65.7329
CA 9.12002 -2.35997 77.8147
CA 5.62313 -11.1628 68.4257
CA 3.05337 13.7373 57.7728
CA -1.01634 -2.57634 49.0382
CA 12.0945 9.60541 51.8234
CA 17.6254 -4.80296 56.2054
CA 23.1211 4.942 17.9492
CA -18.3149 3.85077 74.2925
CA 12.0652 2.84391 66.3476
CA 23.9347 -16.6486 47.9186
CA 4.71677 -32.7582 57.7712
CA 2.0113 22.4932 18.1638
CA 10.2268 -18.3837 81.7558
CA 10.567 8.18461 63.3696
CA 22.3836 6.93848 17.9849
CA 0.49738 -11.5804 50.7336
CA 21.7543 -10.9139 48.5103
CA -0.0102818 3.08981 40.5707
CA -15.3576 -3.34428 78.0512
CA -4.01642 -2.44304 61.3303
CA 25.9391 -5.27326 36.8377
CA 10.6251 -2.74932 71.2294
CA -5.26155 4.8024 60.1885
CA 10.0579 -13.7041 77.4377
CA 25.3411 -17.3678 40.0391
CA 14.9065 -4.79909 21.6549
CA 17.9236 -20.5261 45.7024
CA -4.49268 -4.07825 51.5957
CA 18.1673 -6.28557 70.3544
CA 2.8949 -7.69225 41.6601
CA 21.3896 -9.59622 49.9057
CA 26.4224 -23.2998 40.9922
CA 10.6483 -6.45107 51.9104
CA 17.5582 -15.5488 65.3918
CA 26.4597 -13.2804 58.6255
CA -3.62171 7.71067 54.2604
CA 19.5718 -10.5044 47.1544
CA -5.03573 -9.13827 45.5452
CA 25.664 -16.0015 42.4821
CA -12.4299 12.2735 56.3522
CA -10.1917 12.5797 67.1434
CA 11.6517 -17.9098 87.5874
CA 5.99541 -10.7298 92.0817
CA 8.98601 5.05958 7.42455
CA 2.89418 -10.1224 41.4423
CA 2.89099 -26.7972 40.5272
CA 7.74173 2.12495 58.0474
CA -5.7006 1.27711 48.8839
CA 6.8757 -34.6183 58.8503
CA -3.94181 -33.7893 38.922
CA 14.7693 -6.6235 86.818
CA 9.72816 -16.7988 92.5353
