489

CA 32.4366 -6.80453 41.0304
CA 1.61187 33.9382 58.0809
CA -2.50075 10.0623 14.512
CA -8.96211 32.3748 61.598
CA -24.8064 15.221 61.1932
CA 21.1823 -16.6082 54.7529
CA -2.82311 -1.62341 48.0024
CA -15.0771 6.17752 51.76
CA -1.45412 8.48028 80.067
CA -4.39009 7.86127 91.1163
CA -18.5779 10.4137 52.2277
CA 19.0571 -6.18716 83.3753
CA 11.3673 -4.22779 69.2841
CA 13.4966 13.9248 68.157
CA 8.58963 16.811 41.7909
CA 31.5363 -31.6233 50.843
CA 15.893 -10.8227 45.9815
CA 11.9592 9.19078 72.4183
CA -3.51471 10.4429 56.1061
CA 22.8389 -21.6566 57.6683
CA 10.4571 8.64461 54.1568
CA -23.917 -20.4935 27.0295
CA 36.7857 -7.17761 38.0387
CA 0.625788 15.7761 83.7185
CA -14.8473 3.72942 51.0288
CA 18.7358 -9.49271 73.8938
CA -3.45783 3.67023 57.571
CA 5.93676 -1.95784 70.6308
CA -21.497 -21.0535 30.8237
CA -14.1854 30.1227 67.7839
CA 19.1032 11.2643 33.5146
CA 5.91771 -2.39827 76.6996
CA 6.82784 15.3965 72.8155
CA 37.7933 1.23332 39.1002
CA 12.786 -8.02453 81.8614
CA -0.410465 15.1654 85.7804
CA -16.2979 8.35319 53.1916
CA 3.91201 -5.09454 76.6309
CA 34.5517 -19.0303 54.8546
CA -14.6889 0.407138 52.4322
CA 28.9138 15.9906 46.2166
CA -0.058146 12.0535 56.4155
CA 7.20396 -32.944 62.6998
CA 29.4684 -5.94756 60.6438
CA -10.7672 -6.35634 81.3911
CA 13.4366 -2.55332 47.3107
CA 3.42124 34.1215 45.4187
CA 25.8261 -7.11256 49.1582
CA 1.91332 11.9457 49.6197
CA -10.7838 5.23107 25.6182
CA -19.7246 -21.807 56.8964
CA 34.7586 -7.66948 36.7076
CA 15.0103 1.25655 54.5573
CA -7.56101 -8.96624 59.5105
CA 13.2605 -4.58062 48.0092
CA -9.28464 -3.41324 72.4678
CA 22.5844 -26.529 36.387
CA -7.01412 -31.543 48.9288
CA -9.19236 -1.39631 87.9291
CA 3.48404 6.06065 41.1242
CA 8.90096 -8.04003 56.1744
CA 29.7832 -12.5715 25.3365
CA -5.5095 -6.18383 71.8908
CA 8.01932 4.22966 40.113
CA 18.267 -27.9062 52.3866
CA -22.1807 6.26217 73.263
CA 7.00251 -29.1654 40.368
CA 26.7423 -5.43489 47.9548
CA -1.07601 9.31437 57.6747
CA 3.60735 5.49604 53.0649
CA -9.12491 6.15153 59.7309
CA -13.9641 -20.8053 26.4308
CA 31.4421 -10.3351 63.5232
CA 11.1452 -0.562819 70.2354
CA -18.8775 -13.2922 85.44
CA 31.8474 -13.304 54.4065
CA 8.806 2.59667 74.0978
CA -20.8206 -5.35982 81.0763
CA -6.87606 27.4444 50.2348
CA -13.0781 29.3511 48.9524
CA 9.27881 3.93562 83.0466
CA -5.33252 5.58282 90.0354
CA 24.2063 -7.4827 44.1775
CA -26.5983 15.494 61.8265
CA -1.19747 20.9631 72.3301
CA -3.69681 9.24824 72.919
CA 31.4794 6.35101 42.8585
CA 6.80293 1.61709 87.0742
CA 19.1331 0.597838 52.4911
CA 3.58722 12.3528 76.0241
CA 16.5709 -4.30196 46.0766
CA -20.5051 -19.4481 23.7866
CA 10.6661 -25.5136 54.06
CA -5.88932 -12.376 59.3438
CA 30.6414 -20.1644 49.0541
CA -11.7006 -16.6521 41.6501
CA 3.2707 -11.3281 43.2121
CA 27.6253 -8.22212 49.561
CA 4.17899 -13.6537 38.3314
CA 7.65138 18.5396 38.4753
CA 0.457948 7.97624 81.2229
CA 13.1111 7.68533 81.5352
CA 5.58721 -1.7036 88.1682
CA 7.29088 -5.72583 66.6659
CA -2.23593 5.12061 58.7879
CA -13.8361 1.08284 48.9639
CA 7.21824 -5.83645 49.9849
CA 31.3823 -19.3325 51.004
CA 6.22586 -7.11964 58.8452
CA 23.7351 -19.3956 57.0478
CA 11.3334 2.98192 48.4842
CA -12.3518 3.33806 52.1388
CA 0.468341 4.83321 41.7303
CA -28.3911 38.7342 45.7844
CA 12.565 0.327418 50.4261
CA 39.8238 -5.97 34.44
CA -22.8965 8.85901 72.4106
CA -35.9054 4.05426 59.4747
CA -7.8846 29.0396 54.4008
CA 6.41653 25.1756 77.1576
CA 19.979 -7.59404 86.4828
CA 6.8548 6.13799 79.3472
CA 3.02043 10.3264 55.5996
CA 15.2989 -0.429953 82.7521
CA 4.93333 12.866 74.852
CA 14.0051 9.93756 52.8621
CA 34.7874 -30.537 50.4372
CA -26.7032 1.36031 71.6997
CA 8.14892 8.53798 44.3956
CA 5.82327 6.89846 73.8998
CA 7.87388 1.0679 49.7081
CA 8.0203 24.1307 79.8471
CA -20.2187 -35.5022 22.3732
CA 8.85817 8.90271 65.9457
CA 12.3698 6.12815 18.2721
CA -8.94355 22.3014 36.5613
CA 24.0468 -7.77266 51.0163
CA 10.5676 3.24319 55.3786
CA 6.4061 -27.6022 71.0016
CA 11.4169 -6.0831 83.6243
CA 1.69725 23.6432 75.0815
CA 6.54051 -0.364202 78.1251
CA 3.75435 7.86266 59.0327
CA 29.2903 -16.0543 25.3698
CA 2.60793 -12.9588 36.6129
CA -0.423401 34.5222 43.0419
CA 6.01844 0.4045 70.0981
CA 1.30039 10.268 76.6614
CA 6.70512 10.535 47.7894
CA 38.4172 -18.9205 55.158
CA 34.7225 -7.80022 49.8773
CA -24.2538 3.04117 78.1531
CA 15.1141 -6.85742 47.5144
CA 9.23073 -6.92206 83.7571
CA 6.03487 -46.283 54.9476
CA 6.43661 20.1647 78.3169
CA 0.380382 18.1609 37.2176
CA 22.0778 -25.8149 51.3892
CA -0.931143 12.7734 53.8121
CA -24.3914 -11.5115 41.4717
CA 12.7183 11.5345 43.1294
CA 4.10439 -38.011 44.8668
CA 5.79056 4.4005 55.3755
CA 1.72833 -18.2011 43.1958
CA -2.74989 -10.3525 43.9233
CA -6.91651 16.1621 65.1858
CA -5.21994 26.6299 73.6507
CA 6.60752 18.2141 79.8736
CA 4.92569 -6.43774 49.5956
CA -3.38849 7.16871 86.9235
CA 4.82531 2.50196 76.7844
CA -11.0744 -3.97443 76.3746
CA -13.6113 26.5466 69.7464
CA 20.3222 -6.46581 44.152
CA 5.2778 7.02779 49.7001
CA 8.47386 23.4566 77.3794
CA -0.218186 12.9444 85.7356
CA -0.506466 18.7772 11.8728
CA -0.211194 24.4135 78.161
CA 26.2334 4.23295 39.1092
CA 8.33972 1.25068 43.9776
CA 23.6121 -0.978314 55.4797
CA 10.4332 2.46321 75.0552
CA -7.35469 5.89367 26.8637
CA 10.3425 -7.00364 76.4052
CA 8.33278 1.92493 53.9064
CA -24.1416 0.882722 72.3577
CA 22.2927 -18.3995 58.9002
CA 8.2205 -4.88748 68.3679
CA 15.2933 -2.99583 48.28
CA 2.10767 9.92515 51.7471
CA 9.02786 -28.8291 60.5073
CA -3.15922 25.6153 47.6654
CA -5.06301 28.2087 49.0731
CA 28.6809 -20.4389 36.2964
CA -14.2228 5.959 29.217
CA -11.0094 5.70637 51.9237
CA -10.6172 30.5086 72.1
CA -4.78536 26.3434 75.7996
CA 9.78235 11.8872 77.3893
CA 6.527 12.2984 72.7267
CA 6.1677 7.35921 45.2684
CA 13.5905 13.4162 72.2181
CA 8.52098 10.0724 75.456
CA 13.2113 -27.2704 52.5472
CA 15.5746 -5.1229 73.0449
CA 17.9051 -5.02791 49.5742
CA 20.3213 -3.25669 68.5459
CA 5.81398 -3.67527 68.1049
CA 11.0287 11.0255 65.1634
CA -0.381075 15.0621 32.5433
CA 4.80861 21.0714 81.8251
CA -1.72419 13.2409 70.7857
CA -21.8963 -4.61766 86.2566
CA -2.13511 16.5656 29.6006
CA -4.36503 7.40216 41.4439
CA 9.97062 2.92242 64.4423
CA 6.13099 -0.207572 19.8014
CA -11.1005 27.3394 68.9004
CA 4.34268 -3.93195 89.3607
CA -4.36798 -13.3298 43.4535
CA 12.4725 9.77759 19.6654
CA 9.44095 6.73049 53.189
CA 9.24906 8.97255 51.6519
CA -19.668 -12.1241 82.6418
CA 8.38094 7.53032 50.0658
CA 31.9691 -14.4199 50.9675
CA 22.8634 -24.5902 59.9532
CA 13.7153 10.2844 68.6838
CA 14.6554 -5.78246 44.6854
CA 8.53826 6.1569 63.7735
CA -13.0001 -16.339 46.0249
CA -1.2656 9.03563 71.7931
CA 19.4605 -10.6052 84.3701
CA 11.0191 -2.17207 88.4246
CA 7.86631 5.19596 49.6242
CA -17.9914 -17.1608 21.5654
CA 3.08384 -40.6592 48.7312
CA 1.20394 5.36056 51.3803
CA 19.097 -2.38544 65.9465
CA -0.115448 -15.48 42.2586
CA 2.47827 -13.0662 46.0047
CA 9.47957 -4.33945 48.2859
CA 5.52532 -20.2596 45.2381
CA 25.3539 -29.0782 50.5089
CA 4.84193 -3.63245 84.7341
CA 8.49304 12.3828 71.5874
CA -15.9709 28.3475 66.2593
CA 30.8406 -11.9157 50.8956
CA -12.0475 -18.8829 46.6713
CA 11.8708 13.1476 65.3513
CA 25.4143 -11.3954 49.9134
CA -5.54061 34.2847 60.735
CA -10.4909 -19.9573 43.6005
CA -0.615944 9.86019 53.2362
CA 8.40137 -0.825878 73.6556
CA -7.54661 5.77974 56.7782
CA -13.406 23.7072 69.9718
CA 4.07694 12.4667 73.2593
CA -19.5108 41.4554 47.8019
CA 6.21385 -42.059 55.8012
CA 30.9021 -8.99054 46.6542
CA -9.30922 29.6243 52.2174
CA 32.177 10.4074 41.0396
CA 8.05958 -2.46178 49.2556
CA -6.67485 26.895 48.4734
CA 4.79353 2.9659 79.4816
CA 10.0489 -0.545997 49.4215
CA 19.3286 -25.2842 35.8144
CA -5.89099 -4.29633 81.4066
CA 0.852558 8.99913 74.8962
CA 33.486 9.70229 42.6524
CA 5.18845 9.50948 63.3666
CA 32.2812 -9.71527 60.1457
CA -1.31417 -28.2783 51.4367
CA 4.61065 4.24898 40.6117
CA 5.92845 13.6852 81.3053
CA 28.7816 10.4415 42.4854
CA -23.9202 11.0415 54.2433
CA 10.0416 -1.31816 46.9156
CA -3.45582 12.3299 71.3448
CA 8.82773 26.0629 56.4918
CA 10.0486 -29.712 57.5359
CA 0.0639978 33.2237 59.3877
CA 19.3392 -9.35708 75.6888
CA 6.31497 7.74917 41.5031
CA 32.3119 -22.9744 47.7386
CA -16.2951 -23.4843 44.3644
CA -17.9222 28.0966 48.1669
CA 30.9911 -29.3346 52.2849
CA -5.43956 -29.6623 48.7859
CA 5.17851 15.4306 55.797
CA -7.53288 -29.3759 54.5236
CA -2.33315 7.67795 59.5413
CA 21.0765 -23.4905 56.7764
CA 0.471262 12.3513 72.0898
CA 5.1904 14.1713 60.327
CA 7.12705 14.4397 83.9493
CA 26.3167 -31.0705 49.4398
CA 7.29137 -26.5181 60.3065
CA 7.05663 -43.2278 57.3244
CA 29.7076 -13.7777 51.312
CA 25.8624 -30.0061 53.5626
CA 12.3534 -33.6061 59.6276
CA 18.3485 -8.22636 56.8618
CA 6.42703 9.94877 65.9998
CA -3.90893 19.7351 16.2328
CA 8.40459 14.0556 79.3802
CA 28.3736 -23.2393 35.253
CA 24.1196 -25.5409 57.921
CA -1.99906 11.4107 83.0213
CA 24.9966 5.46162 36.2583
CA 34.1208 -17.4395 50.5662
CA -5.35179 -23.5518 27.8906
CA 10.7284 -3.21122 83.4642
CA -18.0268 30.8865 48.3538
CA -12.4609 26.6744 49.6772
CA 5.7274 -4.03627 87.0277
CA 8.62156 14.3471 77.0822
CA 3.01071 32.4476 43.8526
CA 34.7135 -12.4161 48.9403
CA 39.7801 -4.6505 35.6936
CA -23.9041 20.537 54.9262
CA 10.841 5.2017 55.6143
CA -4.45867 -31.9361 53.1609
CA 13.2974 13.9663 74.2425
CA 8.95537 8.99638 40.4109
CA 2.32699 -10.8538 50.1497
CA 9.28588 -3.19308 88.2339
CA 12.1137 -26.9093 49.2449
CA 6.9285 -2.22939 81.8579
CA 26.7648 -3.94752 57.1373
CA 20.6913 -11.549 51.176
CA 4.39966 0.304077 81.237
CA 9.25326 3.73526 72.199
CA -7.50047 27.599 71.6754
CA 30.8269 -11.8279 53.2765
CA 3.69644 -27.4501 73.8264
CA 3.77653 39.1414 47.3487
CA 10.7814 3.50881 73.6114
CA -17.5801 -19.225 24.5805
CA 6.13015 1.71447 54.7976
CA 10.9964 7.93477 52.3165
CA 10.3502 11.3892 43.4286
CA -9.53015 27.9663 53.909
CA -15.5125 -22.057 43.5599
CA 0.388235 8.15328 55.5108
CA 13.4545 5.37795 70.604
CA 8.99009 14.0039 64.3421
CA 9.90245 -26.4564 74.9198
CA 5.75866 12.1248 77.2553
CA -5.54354 -2.93884 85.5681
CA 0.942109 -14.3412 43.7355
CA -1.71207 2.65812 45.7345
CA -6.15422 5.37932 46.3447
CA -2.38203 34.5313 55.593
CA -10.6047 29.9494 50.9416
CA 3.90897 -0.367839 85.0572
CA 7.23201 10.7468 38.5361
CA 3.06259 17.0796 38.1132
CA -1.33402 9.18029 55.3751
CA 3.74689 7.33775 63.2186
CA 14.6852 12.7009 66.7138
CA 23.4508 -27.1261 56.1096
CA -21.9764 0.106736 73.5877
CA 8.73008 -6.24983 73.2228
CA -2.97276 9.97805 87.2723
CA 10.8307 -32.0907 60.3443
CA 11.8731 12.651 55.7756
CA 5.2445 26.0248 84.2272
CA 18.9549 -10.4842 50.5762
CA 32.1586 -13.5135 49.0138
CA 23.5829 -15.824 55.3261
CA -11.8919 -5.15439 82.7618
CA 21.3302 -26.17 58.8593
CA -21.9614 8.02822 74.2758
CA 9.71346 -1.97638 72.1027
CA 15.0133 38.7836 54.3588
CA 5.90265 -3.45528 72.2112
CA -4.14836 -6.06117 48.6748
CA -16.5411 -17.8783 29.6692
CA -8.97062 29.8726 62.8092
CA 14.682 5.91068 86.5213
CA 11.1359 -32.1037 53.4562
CA -7.62649 8.74487 15.7986
CA -15.4636 29.3494 61.9602
CA 15.8077 14.0383 72.5067
CA 4.47943 24.4227 80.9762
CA 2.77456 4.89811 77.0288
CA 6.52844 5.71547 68.9034
CA -26.4761 18.169 58.1745
CA 8.75268 11.7624 34.8871
CA 5.7375 16.957 81.2366
CA 9.73014 12.2654 39.7342
CA -0.333183 10.8436 77.7531
CA 3.31696 -38.4974 49.4696
CA 33.1906 -11.6914 56.3024
CA 1.88874 13.9222 36.3011
CA 25.6348 -3.8915 55.5882
CA 26.0542 0.0206707 58.8732
CA -34.5124 5.91253 59.891
CA 10.1212 8.09256 19.2854
CA 34.9169 12.4811 41.0619
CA -22.1079 17.1063 59.554
CA 3.58644 20.5763 87.9037
CA 5.14419 -1.74305 86.2655
CA -21.8204 4.69214 74.1355
CA 18.9553 -22.794 60.2358
CA 38.8287 -3.43066 38.6467
CA 8.18724 12.7494 37.8776
CA 29.053 -7.89057 47.4639
CA 17.4101 -0.154415 46.1137
CA -9.5767 28.9611 58.4865
CA 7.97497 9.59877 80.3636
CA 4.19274 15.7477 88.2429
CA -7.45219 7.62227 49.8282
CA 13.0059 12.5812 20.2446
CA 4.3502 -13.1299 44.4188
CA 12.906 15.6379 43.7206
CA 6.97989 -29.351 74.8567
CA -23.5981 12.499 60.6036
CA 31.1651 -17.8852 52.3951
CA 5.44062 -28.501 39.4215
CA 8.32079 7.87581 46.7276
CA -18.6346 -20.5358 27.7328
CA 8.35156 -2.35152 79.5332
CA 32.337 -16.4151 53.1368
CA -13.7737 3.45587 53.6001
CA 19.2943 14.9019 32.2969
CA 8.12656 -3.75115 80.6806
CA -12.9552 26.7726 61.8349
CA -8.21972 30.0655 68.0371
CA 13.0622 9.33855 55.3703
CA -23.0463 -1.86493 26.7082
CA -7.2384 -27.4342 30.1874
CA -18.1789 -5.57835 79.7217
CA -16.2259 7.00754 32.5976
CA 16.6201 5.99766 56.6938
CA 29.7612 -15.562 51.7005
CA 8.3273 -36.0096 44.0308
CA 15.1151 -29.4041 61.1158
CA -10.3871 19.2969 75.8514
CA -8.91503 28.74 74.013
CA 14.0891 3.6659 87.6026
CA 9.90505 -1.93206 80.861
CA -11.0523 23.4139 37.5009
CA -0.445249 8.85537 59.7461
CA -5.78374 -30.6904 52.2211
CA 21.3244 -6.33305 86.0905
CA -26.2528 19.9446 59.8509
CA 10.8523 15.7313 38.6726
CA -9.40511 25.4343 37.0061
CA 1.6949 6.4374 53.3228
CA 19.3396 -4.44318 72.5852
CA -0.444032 5.83222 44.761
CA 16.43 -9.33306 46.8433
CA 9.58762 10.8682 15.4782
CA -21.1435 -19.7344 25.5779
CA 28.026 -12.6069 48.0417
CA -6.12106 9.61346 59.5552
CA -21.614 13.6808 61.5529
CA 23.363 -18.9156 53.884
CA 10.18 -1.00757 74.9075
CA -0.831537 13.7757 16.6444
CA -38.2817 10.8085 57.644
CA 4.97422 0.774697 74.1516
CA -23.8579 10.1552 56.3443
CA 7.42826 13.1005 75.9462
CA 7.15406 8.11514 65.995
CA 25.7229 -21.1671 50.7104
CA -14.0845 -21.8235 22.236
CA -22.1137 -6.40387 45.2214
CA 10.1002 14.4012 35.866
CA 9.03471 -4.08066 50.2771
CA -0.616494 -29.6731 41.6521
CA 24.998 -6.91536 67.811
CA 19.7186 -6.67259 71.8135
CA 12.4958 12.2539 80.7103
CA 12.3385 13.4171 32.9546
CA 2.74724 -1.53678 72.2251
CA -5.9093 31.6904 61.609
CA -11.8714 22.7161 34.7335
CA 9.55047 8.98394 48.9773
CA 18.4047 10.3785 38.2186
CA -1.60119 7.49939 61.465
CA 10.5431 12.5189 63.944
CA 3.77713 15.8668 78.6809
CA -21.8536 18.8336 60.2226
CA -8.29382 28.6372 50.4771
