489

CA 16.2834 1.68205 89.9071
CA 0.77734 -4.06031 52.5292
CA -9.66956 11.2087 46.2555
CA 13.0029 -2.04889 29.1358
CA -0.274777 -7.68393 65.478
CA 12.7334 -1.78842 85.5955
CA 23.8032 -10.5817 74.3293
CA 13.9871 -18.8583 49.6152
CA 5.80898 -1.05243 70.7825
CA 16.0455 -14.3478 94.2428
CA -0.94636 -12.6973 76.9843
CA 4.40048 6.883 59.7775
CA 14.1317 -1.4447 87.8271
CA 14.2023 -1.8044 69.675
CA 2.8394 -10.9351 93.7277
CA -9.40588 5.57013 52.8534
CA 7.92556 -10.8569 71.4937
CA 21.5383 -19.9226 43.139
CA 3.76908 -13.2566 59.7748
CA 14.9362 -1.63564 53.4169
CA -11.8785 -10.3028 58.4719
CA -12.7778 0.230873 48.4559
CA 27.4772 -11.9726 52.1276
CA -3.99166 -19.4458 50.2012
CA 4.24809 12.2884 65.7003
CA 13.1449 -1.0632 20.6166
CA -2.56218 -19.8357 76.5782
CA -0.342582 0.807159 40.8051
CA 14.1699 -11.2096 93.7022
CA 11.7869 -0.764306 51.733
CA 13.175 -10.4512 15.9868
CA 4.02113 -3.13817 66.5306
CA 3.8446 -11.964 62.0168
CA 14.8492 -1.1294 75.861
CA 14.5972 -2.01472 33.3185
CA -0.762901 4.65226 71.4778
CA 2.69332 -11.1268 73.0769
CA 7.09763 9.80895 18.7824
CA -3.97789 -3.92473 40.8757
CA 11.3973 4.33954 57.9889
CA -0.373775 15.4805 60.0544
CA -3.56405 12.8876 66.6314
CA 13.9643 -15.6548 19.9411
CA 2.99101 -11.6422 84.2301
CA 4.80735 -15.4275 59.9391
CA 21.8323 -0.0155316 75.8498
CA -4.9498 13.5047 58.5833
CA 3.04226 19.8121 17.682
CA 26.077 -3.89979 75.6268
CA -8.97836 16.7555 50.8181
CA -2.88967 -29.6209 57.7756
CA -7.92225 6.5594 71.8724
CA 13.1021 13.9873 49.1646
CA -0.0818137 -32.6827 59.898
CA -13.3312 -4.6137 53.4972
CA 11.4381 5.01648 63.1291
CA 16.1918 0.22496 26.1497
CA 6.40894 6.51595 68.8869
CA 12.9044 2.64536 69.7249
CA -6.61867 4.15119 63.7741
CA 7.12147 -21.9379 34.6677
CA -11.0588 9.06101 69.002
CA 25.9425 -24.5782 57.7217
CA 32.7564 -11.8942 77.751
CA -15.4744 3.03047 39.6448
CA 29.1052 -27.4555 51.8345
CA -12.7428 -6.82735 79.4664
CA -8.10319 -15.3093 52.6136
CA 6.64074 -7.76755 44.9695
CA -3.57537 4.59409 54.8661
CA -4.23324 6.28398 55.5022
CA 14.8556 5.7792 14.08
CA 14.444 -18.5846 56.2688
CA 2.46701 -2.21303 65.6967
CA 12.1977 -14.9084 87.0823
CA 13.6439 1.08769 60.8732
CA 12.3888 -25.9927 71.53
CA -6.69807 23.3968 18.7111
CA -15.1101 2.93677 72.2595
CA -3.94023 4.90051 72.9033
CA 7.62691 -8.59967 82.9071
CA 29.1862 -10.0096 43.925
CA 2.1829 7.19768 78.3413
CA 27.3938 -14.7881 55.3423
CA 14.9067 -12.7177 16.8333
CA 21.7355 -16.1816 57.5135
CA 27.0405 -18.7735 53.0927
CA -0.621711 -44.313 63.2482
CA -2.03115 -3.27902 37.1576
CA 1.53441 7.99077 56.917
CA 21.4961 -28.9662 50.6758
CA 7.48481 -20.9477 43.9562
CA -0.437221 -22.2273 67.9978
CA -1.55546 -5.65906 44.7952
CA 20.9994 -16.8391 83.218
CA 4.57254 -5.24232 63.7134
CA 15.6379 10.1425 49.1091
CA 13.3826 -25.5795 52.1386
CA -2.3298 -2.96764 41.1443
CA 26.3857 0.214535 71.0129
CA 17.3228 -19.2963 43.9437
CA 26.9536 -5.16929 33.7186
CA -6.39414 5.32608 83.0336
CA 4.69946 -8.11062 65.8572
CA 32.0964 -12.5151 69.7482
CA 4.06414 4.93417 60.4106
CA 5.75057 9.54379 52.0358
CA 5.39272 -31.944 62.805
CA 8.2632 -13.81 50.2094
CA -0.977224 8.85322 73.2166
CA -9.72932 4.68129 74.783
CA 8.58304 21.2556 17.6868
CA 26.8496 -20.6773 45.3835
CA -1.42728 -33.6322 53.1777
CA -6.47279 10.2689 75.6065
CA 26.7639 1.04333 74.513
CA 27.2078 -24.9679 54.9467
CA 3.05621 -22.1622 70.0776
CA 15.8109 4.38214 72.0245
CA 20.4037 -7.49942 20.3845
CA 17.033 -14.8381 77.5719
CA 3.1912 -4.52437 49.5547
CA 4.95317 3.33128 57.4405
CA -4.23928 -16.3345 57.3848
CA -2.50406 26.2219 19.766
CA -1.38333 10.4669 68.2544
CA -5.87423 11.1796 72.4833
CA 29.7888 -10.3592 72.8208
CA 18.6879 -10.2173 54.8704
CA 17.0273 8.23315 76.9285
CA 13.142 24.3078 50.267
CA 8.63823 -7.77837 40.0109
CA -7.44343 6.64212 56.723
CA 14.5956 -8.83989 54.4778
CA 12.7196 18.4878 15.3118
CA 29.7256 -8.77374 76.0016
CA -5.2645 10.2236 85.4392
CA 2.21409 -11.3443 46.1386
CA 13.021 19.2112 12.0715
CA 4.20273 10.0744 65.6203
CA 10.7608 -1.60893 50.46
CA 9.23516 -8.57051 71.7713
CA 3.69969 -16.2501 81.9348
CA 5.19174 -5.33206 36.7646
CA 28.1382 -4.95889 74.3952
CA 14.1848 15.9284 50.7456
CA -6.07229 -3.86785 62.9571
CA 12.4985 -5.3513 34.1602
CA 23.1804 -19.3115 61.1401
CA 18.0403 -16.4409 85.4101
CA 3.24276 2.32285 65.2813
CA 12.8147 -9.63608 37.1792
CA 5.0153 -9.14445 91.5365
CA 2.13857 -37.5534 57.6156
CA -6.83091 3.24931 69.792
CA -7.82047 6.36604 75.4611
CA 4.24538 -13.1572 69.0145
CA -7.28111 5.48298 51.3067
CA -3.09139 23.5645 18.008
CA 9.1576 3.50756 61.1005
CA 16.501 8.06634 15.7025
CA 6.09298 -11.7121 46.2391
CA -11.2153 -3.75029 45.8847
CA 1.973 -11.7458 57.0807
CA 3.52977 6.10178 79.049
CA 6.89646 17.2459 15.5467
CA 20.6538 -4.75776 17.1358
CA -5.76643 20.0175 13.9029
CA 9.70964 -12.3698 90.3498
CA -12.9221 -3.8801 44.1962
CA 2.84634 -15.3587 59.6011
CA 19.7027 -3.36939 91.3104
CA -0.512412 -6.54665 69.1849
CA 4.28584 -4.22672 44.5812
CA 12.4859 6.46854 71.6369
CA 31.99 -8.02007 76.8485
CA 24.9054 -11.4244 54.48
CA 19.6579 -3.94383 52.8786
CA 11.6664 -8.49527 81.9501
CA 26.2551 -8.50881 83.852
CA -10.3488 1.90012 77.5122
CA 15.2276 6.33246 78.2162
CA -2.51282 5.76978 57.832
CA 14.5084 -20.0676 54.4453
CA 8.08396 -4.88522 40.1742
CA 8.75829 1.55881 4.19281
CA 0.454639 -2.54367 37.2454
CA 7.71758 14.5044 58.367
CA 15.9366 -7.64442 54.7937
CA 14.8238 3.86933 81.1542
CA 18.2843 -18.6284 80.6647
CA -6.04265 0.634425 80.2934
CA -2.64172 -5.8886 49.3528
CA -0.107164 2.46214 66.0732
CA 10.2505 -16.8853 52.1804
CA 4.9028 -14.2185 63.8887
CA 27.8323 -12.4303 42.613
CA -7.62086 -15.1981 50.7369
CA 15.5135 7.15577 60.9079
CA 16.63 -3.95482 92.957
CA 8.50366 8.83255 61.9965
CA -8.1966 10.5687 75.1257
CA 15.9081 4.50251 78.8859
CA 3.35579 1.87599 41.3849
CA -10.6401 -9.60173 75.484
CA 2.81781 -30.7245 65.0803
CA 16.9507 -5.71178 54.6892
CA 16.5622 -14.4662 50.7708
CA 13.7333 -4.59957 26.0148
CA 17.8677 -14.8642 60.6304
CA 13.2447 3.17754 59.8447
CA 27.7601 -2.69415 69.0185
CA -6.62345 26.3197 18.3727
CA -4.77454 7.38404 87.2889
CA 10.4416 -25.8623 69.5119
CA -11.5527 4.27081 52.5938
CA -6.16592 -18.4972 46.6183
CA 7.73292 20.1959 50.5884
CA 17.1863 11.7473 52.4953
CA -2.67234 -10.8241 91.3469
CA 9.84665 2.23496 71.1328
CA 1.76971 -31.8939 60.913
CA -3.83098 3.09967 70.3707
CA 1.91675 22.8719 14.64
CA 0.400048 -7.30905 44.6034
CA 7.18497 14.4079 64.1183
CA 16.6095 7.35465 78.877
CA 11.1129 23.1582 50.8723
CA -5.13682 5.75568 50.1153
CA 0.398894 13.8908 65.5021
CA 9.88676 11.9668 46.6618
CA 8.90444 -1.42489 60.3695
CA 27.8829 -19.8154 60.8288
CA 7.01622 1.21956 57.4423
CA 28.7221 -12.4852 40.8811
CA 23.0796 -14.1201 76.0705
CA 7.03397 -30.3216 67.5117
CA 16.4477 0.44806 14.3913
CA 13.8357 -14.0739 84.7361
CA 7.59017 4.93522 57.8708
CA 2.74816 -1.39509 70.4094
CA 21.749 -6.31169 81.5539
CA 5.9265 -18.1533 69.9066
CA 13.6736 -3.18201 89.0201
CA 6.36107 -3.59329 56.554
CA 25.3724 -19.0797 54.2935
CA -8.42248 3.7261 65.9898
CA 10.043 -14.5193 49.8891
CA 19.2912 -8.05686 14.5579
CA -0.624288 -12.0144 44.8767
CA 5.57914 -21.6084 75.6301
CA 6.87391 -4.66751 59.6805
CA 13.8242 -20.4577 58.0671
CA -0.920565 0.992116 63.8842
CA 19.259 4.34086 88.3525
CA 14.4701 6.62781 67.9108
CA -8.52675 3.87293 79.895
CA -10.2373 4.21275 85.7898
CA 5.10467 -19.0138 82.5629
CA 12.3482 -11.2583 21.1221
CA 2.38918 -13.3483 57.9782
CA 9.9803 3.9354 59.3005
CA 28.8907 -25.2786 52.1017
CA 5.55316 4.79986 63.3079
CA 22.8918 -20.4942 85.4613
CA -8.18064 7.42858 47.3785
CA 17.3905 -1.90849 26.9093
CA 24.9664 -19.6317 44.8366
CA 13.449 -9.4019 20.7666
CA -7.51135 -3.32579 47.6089
CA 17.3794 -2.81543 18.7339
CA -11.6273 -12.8114 55.5039
CA -7.30924 -15.2819 54.5549
CA 12.2788 15.3888 70.7519
CA 12.639 5.60542 9.36872
CA 22.385 -15.9205 77.1355
CA 22.8348 -15.4542 86.7047
CA 7.60659 -5.10457 67.0529
CA 7.79862 3.19444 71.8602
CA 7.65815 -24.0051 43.1953
CA -1.69021 -13.6771 44.7693
CA -10.4021 -7.03951 54.1209
CA 3.57695 -5.52676 66.6732
CA -8.42337 -5.93723 48.5785
CA 6.10826 -21.843 72.1175
CA 5.92638 -11.9968 63.3056
CA 8.76459 12.2872 59.7418
CA -2.2449 4.32453 81.6889
CA 1.23077 -9.23917 92.0031
CA -5.0314 3.28906 78.6523
CA 1.96529 -15.2036 57.569
CA 27.9323 -16.1791 52.6365
CA 11.4853 -5.18316 85.4606
CA 14.7034 0.881712 79.09
CA -10.8049 1.43139 68.2357
CA 6.27721 -12.9521 72.3728
CA 4.39711 -4.10727 52.36
CA -9.31786 1.28279 75.8755
CA 10.06 11.6922 50.2972
CA 7.56964 6.84474 56.8287
CA -9.34069 -3.5007 80.641
CA 26.2594 -18.463 75.0684
CA -9.46971 -2.85559 51.4516
CA -12.3172 -3.43385 47.4568
CA 2.39686 -35.7458 54.4799
CA 13.9658 4.26491 57.5711
CA 8.02562 -1.86796 62.8546
CA 0.0634371 18.0513 16.6243
CA 8.72887 7.1785 58.2911
CA 11.2863 -3.36804 89.0434
CA 1.42443 -7.18067 84.7716
CA 2.99917 -8.6518 89.373
CA 0.886875 -2.81958 57.1551
CA -6.04435 9.42339 73.0159
CA 2.61358 -19.5082 70.8699
CA 1.01705 8.77968 59.3282
CA 11.8422 -0.714667 80.1227
CA 28.9528 -9.21876 36.2036
CA 9.92677 1.25369 63.0693
CA 10.4638 -9.03702 78.9079
CA -5.81646 -17.897 58.7389
CA 18.2394 -6.84082 51.0199
CA 24.084 -26.9494 54.0829
CA -9.67392 -8.21349 79.0371
CA -9.36207 22.4916 17.2609
CA 13.3963 0.516358 36.0284
CA -1.78 -23.6125 66.1609
CA -7.73107 1.49855 80.0553
CA 1.55083 12.1536 66.9362
CA -0.356613 9.67806 77.5398
CA 0.628417 -6.59891 73.7152
CA 0.794765 -14.4571 80.3232
CA 1.83807 -40.7845 61.2381
CA 21.4561 -14.1261 50.1246
CA 7.9715 -12.6557 44.8777
CA 11.0414 24.7333 47.9211
CA -2.80645 -4.97072 42.1733
CA 0.758746 -36.098 57.0314
CA 24.609 -23.2949 59.6524
CA 14.878 -4.75953 17.3401
CA 5.42881 -4.62699 62.1038
CA -1.67842 17.9777 52.2869
CA 1.2266 -29.7329 67.5
CA 3.61276 -11.291 69.0131
CA -0.586385 -12.2894 58.8851
CA 10.2429 -13.0269 48.1347
CA -4.19354 6.09997 53.1222
CA -7.57441 8.29353 82.5607
CA 16.4766 -1.516 83.9369
CA 10.5371 16.0036 49.4852
CA 22.9924 -2.08873 84.9414
CA -0.939056 -37.2151 55.1851
CA -7.90353 14.6066 54.2949
CA 13.9073 10.6892 17.3093
CA 15.4709 -3.31613 20.4544
CA 12.3073 9.07157 60.1903
CA -13.8808 -2.79485 45.5757
CA 5.02932 -22.8138 70.2847
CA -4.55018 -17.2104 45.7782
CA 6.01457 -8.58031 73.0012
CA 18.5105 -14.7756 57.4004
CA -2.68054 21.3379 15.8547
CA -6.17979 8.48178 88.4206
CA -10.0774 -10.7495 57.8754
CA -1.42574 -10.1276 73.6561
CA 20.6755 -17.4578 79.7111
CA 10.2122 -14.8987 78.638
CA -1.4521 -26.0213 71.0737
CA -16.9696 0.472024 76.0665
CA -2.01153 16.0793 48.0273
CA 30.0691 -8.47336 80.5245
CA -5.76503 22.5193 15.7177
CA 24.8458 -4.34612 84.069
CA 15.9629 7.84493 66.0831
CA 9.80092 14.3161 49.7573
CA -11.7291 3.36214 65.7897
CA 2.97236 20.2359 15.7807
CA -4.4951 -0.331355 65.0066
CA 1.42771 -4.85721 55.5508
CA 5.80494 -23.5922 38.5745
CA 6.73642 -12.4431 78.0026
CA -0.842931 -31.1132 57.4433
CA 15.4898 2.66154 58.167
CA 24.2055 -21.4334 53.2925
CA 6.01629 -16.9629 44.4677
CA -15.0215 -0.00727471 46.2183
CA 18.0542 -0.401526 77.4261
CA 5.83469 -6.78487 58.0304
CA 18.0266 -6.86023 92.7974
CA -1.9076 -18.0151 59.5296
CA 11.2189 -27.7173 66.3113
CA 13.7848 -8.87539 13.6217
CA 17.4095 -11.8449 74.3992
CA 9.14999 -8.08511 92.5866
CA 9.53504 11.954 68.7056
CA -5.63917 2.79319 75.4362
CA -6.94087 2.37756 66.4081
CA 8.16484 -36.5216 59.9106
CA -1.92232 -15.5302 79.2283
CA 25.7463 -24.1894 44.3121
CA -6.87296 4.81501 78.0207
CA 20.8509 -10.5901 55.5912
CA 11.9139 -17.7763 85.8331
CA 7.69571 -9.68298 91.4375
CA 10.5448 12.341 18.0837
CA 10.7637 -9.52798 19.4148
CA 16.0375 -2.25354 90.9572
CA 19.0842 -2.26836 75.9206
CA 13.9164 8.45781 74.3374
CA 7.58547 0.373122 8.51761
CA 20.2103 -6.25189 75.2838
CA 5.39922 8.42656 63.6315
CA -3.97869 -18.6553 58.2041
CA 3.2938 6.80504 73.5054
CA 0.757003 0.755334 43.116
CA 12.7563 26.2294 45.804
CA 0.807166 -23.0331 76.0784
CA 8.39296 14.9385 17.669
CA -7.62535 12.3592 70.6072
CA 26.6673 -2.84068 72.4409
CA -11.2529 7.16539 45.8238
CA 2.07718 -17.6655 79.6521
CA 4.07048 0.944915 39.3086
CA 16.6369 -17.2563 90.7264
CA 4.79786 2.32701 72.8359
CA -4.99813 -9.15209 43.4845
CA 10.0343 13.6429 51.505
CA 13.4994 -2.74437 27.0319
CA 3.68796 -18.2159 64.6703
CA 20.9301 -13.4048 56.1897
CA 11.8121 -23.7628 53.2249
CA 10.9071 -17.5753 78.6254
CA -4.44392 0.842909 74.6047
CA 18.3662 6.62488 62.7658
CA 24.1106 -7.39852 76.207
CA -11.0983 2.47595 75.7466
CA -1.31086 -30.163 55.9117
CA -5.41158 -25.2168 73.1174
CA 2.5872 5.573 83.7519
CA 11.831 -15.0282 55.8713
CA 25.0419 -11.7232 76.3031
CA 12.0945 9.60541 51.8234
CA 17.6254 -4.80296 56.2054
CA 25.1183 -26.7379 52.3671
CA -4.17609 6.38009 75.1483
CA 9.31135 -15.0548 44.4688
CA 16.2696 -14.9791 79.3849
CA 2.42053 12.5881 69.8463
CA -1.57584 -2.97984 51.3936
CA 1.08805 9.22952 68.3665
CA 12.2157 -18.0434 74.2311
CA 22.3836 6.93848 17.9849
CA 11.3402 -25.3661 57.4403
CA 1.73514 6.19667 63.2085
CA -1.30657 13.5958 54.3198
CA 14.3897 -3.66598 22.2259
CA -8.21707 -9.25218 55.6282
CA 25.9391 -5.27326 36.8377
CA -7.47611 -4.99942 60.7436
CA 31.0276 -26.0223 53.6608
CA 27.9301 -9.31767 82.7815
CA -8.94329 -7.92463 81.0767
CA -6.38522 11.6229 88.0768
CA 17.9236 -20.5261 45.7024
CA -4.49268 -4.07825 51.5957
CA -4.92595 16.5177 63.8957
CA 24.9864 -12.6063 43.063
CA 0.753089 -13.8847 76.1191
CA -3.6155 -4.16539 49.5675
CA 27.4184 -6.36849 79.2587
CA 1.43235 8.56833 76.437
CA -10.6278 -7.79231 50.4867
CA -13.0215 6.57231 41.9904
CA 24.0437 -5.01016 19.0154
CA 0.156529 -33.0725 63.9994
CA 25.664 -16.0015 42.4821
CA 13.465 7.75664 70.2357
CA 4.84932 -33.8444 60.0879
CA -6.67142 1.48781 78.0899
CA -7.12753 4.90156 58.6839
CA 8.98601 5.05958 7.42455
CA 19.3539 6.2029 16.8285
CA 2.89099 -26.7972 40.5272
CA 14.7859 2.95616 78.9257
CA -5.7006 1.27711 48.8839
CA 2.81879 13.7485 57.1958
CA 2.23896 -30.3295 61.689
CA 0.542535 -2.36227 63.845
CA -6.96866 9.65346 71.3394
