489

CA 16.2834 1.68205 89.9071
CA 4.86838 18.1599 12.3514
CA 20.3332 -25.0073 56.2077
CA 9.50985 2.51064 4.42056
CA 28.3565 -3.01534 84.6278
CA 1.18914 -6.81272 57.9546
CA 3.58725 3.53543 54.183
CA 11.2607 4.92363 5.43379
CA 29.7794 1.21615 85.2779
CA 5.39787 -9.87217 43.2237
CA -9.86923 -14.6154 48.14
CA 32.0411 -8.13563 87.962
CA -10.641 -6.8684 73.1251
CA 0.516034 -15.1452 46.8566
CA 2.92037 14.5116 17.1045
CA 3.41076 -28.1045 60.9005
CA 13.3186 -9.03337 45.9787
CA 21.5383 -19.9226 43.139
CA 32.8436 -8.34456 54.2636
CA 2.88401 -15.3471 79.8308
CA -7.17161 -0.0487381 67.512
CA -0.882579 9.41944 68.4045
CA 0.972214 -5.52045 68.7763
CA 6.44348 -12.1493 51.0907
CA 4.44988 5.44431 87.7097
CA 10.1726 -13.1951 86.4503
CA 16.7751 -12.0577 16.94
CA 11.589 -8.07056 19.1298
CA -2.87408 -7.5087 56.4897
CA -2.66109 -9.90226 67.3528
CA 22.9593 -17.1591 41.7011
CA 5.33054 11.837 66.6124
CA -9.38742 4.01184 72.8022
CA 22.886 -8.24623 90.2827
CA -2.26499 -17.7947 61.2037
CA -14.7845 2.51684 47.0848
CA 16.6473 -18.8908 50.121
CA 24.6529 -0.788541 76.0027
CA -3.97789 -3.92473 40.8757
CA 15.488 -16.3311 51.5113
CA 9.21189 10.9834 77.3361
CA -0.182447 12.5427 72.6529
CA 21.7819 7.21781 60.38
CA -2.77672 -1.12123 56.4397
CA -7.75166 8.94936 78.3569
CA -0.952719 -7.45091 79.9257
CA 22.4502 -12.0975 44.9751
CA 18.788 5.08657 15.2147
CA 23.2068 -22.953 90.2664
CA -5.9731 26.3347 16.1997
CA 37.8085 -6.76431 83.3282
CA 24.1022 -17.8188 80.0553
CA 14.4853 2.41788 69.9734
CA 11.3418 6.05745 77.7228
CA 15.4121 11.4165 50.9481
CA 18.3399 6.51183 58.5752
CA 25.4034 -22.1307 62.9978
CA 17.9582 -6.64667 20.3278
CA 5.19315 -17.3734 53.3733
CA 26.7631 -15.5018 54.3109
CA -3.36088 10.7807 14.486
CA 8.74695 11.7164 65.5765
CA 14.7024 -5.05173 79.737
CA 8.89662 10.8277 43.2354
CA 17.8994 -8.27328 34.9
CA 40.3144 -6.60051 86.9563
CA 4.70138 -14.4266 73.3456
CA -2.78552 -15.9676 61.5965
CA 5.02476 -16.5322 59.9163
CA 4.50055 -20.9767 52.5276
CA -3.66753 -6.20075 41.3583
CA 16.5706 6.30522 10.1065
CA -7.10351 -17.9877 47.7025
CA 7.24407 4.73013 64.2243
CA -3.84899 8.67783 65.7816
CA -2.17689 -21.7058 56.8839
CA 14.837 -27.0747 60.4284
CA 12.0075 -5.12847 69.0615
CA 13.2328 8.17567 52.2675
CA 10.8802 8.98902 70.6969
CA 19.5083 -9.99789 77.8272
CA 1.6869 1.04307 71.8447
CA -1.77299 2.2972 57.3934
CA 3.2885 -30.0231 64.6162
CA -3.35754 -15.6715 43.9827
CA 21.7355 -16.1816 57.5135
CA 27.0405 -18.7735 53.0927
CA 15.9663 -7.60509 68.934
CA 22.1869 -5.44302 78.6782
CA 2.45867 15.5315 71.8987
CA 5.64692 -16.3641 65.5801
CA 3.71696 -9.9195 84.8922
CA 25.61 -15.7705 49.2645
CA 13.8727 9.99605 56.5121
CA 23.0205 -18.0524 86.5694
CA 10.491 -20.623 58.0135
CA 24.9781 -15.4563 59.2275
CA 27.9314 2.87675 84.6178
CA -7.12926 1.98194 68.5322
CA 17.5527 -17.2642 49.8864
CA 22.3744 -7.36258 79.234
CA 5.75794 10.7868 76.6635
CA 9.09865 8.01775 67.1759
CA -5.04918 22.2606 19.2036
CA 23.6078 -17.3068 59.1042
CA 13.3144 10.7328 60.9046
CA -9.35415 -2.62562 50.3943
CA 4.50051 -3.91631 44.2869
CA 11.3291 -20.5291 70.2925
CA -15.9265 -17.43 51.7471
CA -12.0343 7.33226 52.3873
CA 4.81474 -21.8056 73.0703
CA 13.1102 -24.6731 69.6763
CA 23.9501 -6.26741 71.0984
CA 10.583 0.815146 78.2899
CA 0.326211 21.7653 19.2409
CA 13.9593 2.44866 75.7532
CA -0.296587 -6.56384 62.0367
CA -8.10473 6.95044 77.3901
CA 16.8777 -21.6635 65.209
CA 3.85949 -9.46605 58.7618
CA 6.07808 9.34976 70.2985
CA -0.447762 -31.7803 60.7075
CA 15.4743 -2.30844 41.2986
CA 26.8543 -14.149 56.5568
CA 4.10346 -23.6591 51.495
CA -4.25381 -32.6725 59.4664
CA 20.3045 -18.7961 64.2684
CA 9.6858 -21.9497 56.6631
CA 4.90995 10.1171 67.1329
CA 1.04179 -8.98046 51.6427
CA -6.6959 1.84633 56.886
CA 17.6887 -21.7402 53.4831
CA -2.68973 -4.6007 59.0496
CA -3.32483 -30.6557 64.0921
CA 10.793 -26.9217 65.7784
CA -5.87945 -13.8097 46.5548
CA 19.583 -7.30006 79.3208
CA -3.74631 7.20077 74.3597
CA 0.489954 4.06781 56.3254
CA 2.11966 -16.9609 44.9591
CA 9.28477 13.4447 71.4749
CA 10.7001 1.31469 65.8771
CA -6.09247 1.69258 46.7784
CA 11.8181 -11.3372 46.3677
CA 14.1848 15.9284 50.7456
CA -2.47682 -8.48268 62.7071
CA 12.4985 -5.3513 34.1602
CA 23.1804 -19.3115 61.1401
CA 5.87282 6.19339 94.6905
CA 7.89176 -18.8777 42.6441
CA -1.43572 11.9254 58.6397
CA 7.76159 -14.6243 54.7935
CA -11.2298 -7.36888 70.9899
CA -1.996 -14.4324 69.9267
CA 2.70965 13.9472 66.4682
CA 4.24538 -13.1572 69.0145
CA 15.6259 8.59616 55.3248
CA -3.09139 23.5645 18.008
CA 12.3958 -3.5603 31.3298
CA 16.501 8.06634 15.7025
CA 7.56491 -5.85434 39.9961
CA -11.3947 0.227679 65.5836
CA 4.4602 -25.2332 71.8613
CA 25.5259 -6.22523 57.2101
CA 6.89646 17.2459 15.5467
CA 20.6538 -4.75776 17.1358
CA 2.1818 -10.3289 88.7512
CA 15.8242 -19.2698 85.9194
CA -16.3808 3.39083 52.8914
CA 13.0953 4.30897 92.3573
CA 12.4472 -26.548 62.7178
CA -6.09088 6.26748 88.0048
CA 19.0331 7.24256 6.04716
CA -9.45091 -0.60555 52.1806
CA -3.29424 -2.81073 46.2247
CA -7.01926 2.43494 63.9772
CA 6.8289 7.90976 76.1568
CA 3.91057 2.76493 7.29535
CA -6.50547 12.486 71.6045
CA 6.89779 -20.4809 44.7885
CA 0.771989 -9.10145 64.6786
CA -2.51282 5.76978 57.832
CA 27.2628 -15.0584 51.1188
CA -12.6424 -19.4905 48.4516
CA 1.80688 6.48684 63.1953
CA 4.52618 -13.059 55.1823
CA 10.8376 -24.4989 74.1686
CA -6.184 5.72455 69.9085
CA 10.3348 6.38624 69.1222
CA 18.2843 -18.6284 80.6647
CA 17.9519 -17.0166 81.9449
CA -2.30043 9.87972 57.1681
CA 6.99494 10.6584 43.109
CA -9.87163 0.00628974 83.539
CA 14.5805 -1.53749 30.2846
CA -1.91301 12.1819 19.8735
CA 13.708 -8.03975 35.5637
CA 15.5135 7.15577 60.9079
CA 3.90168 0.301177 76.4044
CA 2.63458 5.82146 74.7297
CA 2.57463 -13.4754 40.6199
CA 3.22581 -9.30117 61.4521
CA 10.7793 -1.68043 57.429
CA -11.2669 -17.3956 52.6246
CA -9.65725 -10.7012 52.246
CA 9.75559 -11.8111 80.1032
CA 16.5622 -14.4662 50.7708
CA -11.9437 5.69191 73.7705
CA -0.208645 -15.847 45.348
CA -0.636552 -23.2628 56.1872
CA -3.74969 -5.47964 39.1888
CA 6.23571 -16.3886 63.6122
CA 2.89146 4.78803 91.4854
CA 12.6329 -5.80849 90.3097
CA -11.5527 4.27081 52.5938
CA 14.257 -4.07361 19.7546
CA 20.7331 -19.6049 76.9398
CA 29.7021 -11.1387 55.004
CA 6.24379 -9.7895 74.6388
CA 14.2571 -1.55785 86.9318
CA 11.7874 -11.5145 44.2044
CA 20.7019 7.60474 14.1494
CA -1.14348 -6.0675 52.1285
CA 19.7725 -2.81519 16.0675
CA 24.0716 -12.6302 89.0726
CA 31.2455 -16.7948 83.2646
CA 11.1129 23.1582 50.8723
CA 12.0464 -3.88066 21.8181
CA 25.1914 -19.1408 89.0194
CA -5.07338 16.5682 18.6875
CA 14.4132 -11.2467 36.4012
CA -4.96963 -0.524462 44.4629
CA 7.26025 -14.6093 74.025
CA 5.09837 -15.5062 79.8238
CA 24.5909 -6.58917 74.4529
CA -9.40366 2.35519 68.992
CA 16.4477 0.44806 14.3913
CA 16.8214 -5.18479 86.151
CA 7.88532 -7.80178 41.9513
CA 0.0166496 -17.8373 57.7158
CA 26.1194 -9.69256 46.7552
CA 17.3148 -8.23131 30.9039
CA 13.6328 -5.6991 21.1851
CA 2.53015 5.11417 84.1275
CA 11.0121 19.3168 51.7286
CA -2.55762 -24.7793 69.2031
CA 5.64369 0.926776 75.7556
CA 11.3859 -21.4705 72.4015
CA 10.6674 -31.2406 61.2916
CA -4.09368 -19.9785 47.8075
CA 1.78246 -10.5949 56.4329
CA 4.44247 -7.25611 43.6863
CA 5.71147 -5.13802 72.5403
CA 22.0008 -21.0946 87.7906
CA 3.89035 -16.9992 63.1727
CA 2.48056 -23.8624 74.3547
CA 15.7568 -14.1758 53.9153
CA 4.85354 -18.9977 74.9411
CA 11.9443 8.22146 78.1449
CA 29.7681 -16.024 55.649
CA 1.67395 21.8154 17.8037
CA 22.1293 -0.858586 71.2433
CA 1.65307 -4.45799 72.7677
CA -3.09691 8.2073 87.6123
CA 16.6546 7.24191 56.2705
CA 17.3905 -1.90849 26.9093
CA 10.2351 -1.48074 86.5484
CA 13.449 -9.4019 20.7666
CA 0.12544 22.3156 22.0806
CA 6.47004 19.2663 16.3824
CA -0.545832 -4.53611 63.0715
CA 17.5958 -5.84661 24.8415
CA -1.3423 -4.62083 65.4699
CA 12.639 5.60542 9.36872
CA 10.8031 9.52411 48.4814
CA 22.8348 -15.4542 86.7047
CA 8.35265 -32.7787 59.506
CA 0.540251 -20.161 59.0736
CA -0.500695 -10.7783 90.5056
CA 14.4999 9.59567 74.0506
CA 7.60175 -11.7516 73.0767
CA 4.89936 -1.65 89.7885
CA -2.30611 -25.1356 64.2206
CA 23.8026 -9.11888 79.8074
CA 6.69824 -0.756278 75.8062
CA 14.4377 -15.2899 86.495
CA 23.4798 -6.99927 45.1351
CA 10.7294 9.95415 67.8206
CA -5.88082 -16.8659 65.979
CA -6.67371 -12.1287 47.2415
CA 17.04 -19.4156 52.2916
CA 29.8312 -1.82739 84.4451
CA 14.7034 0.881712 79.09
CA -4.57808 9.08868 70.0468
CA 10.3918 -7.2282 45.283
CA 31.8716 -12.2314 84.2059
CA 25.8384 -10.2583 84.0999
CA 23.0296 4.29392 76.2668
CA -1.94748 -16.5877 55.6987
CA 30.9024 -2.55672 87.2584
CA 22.6277 -22.3819 62.0772
CA 1.5434 -19.6042 55.9904
CA 8.789 -4.54668 21.2887
CA 27.4926 -12.0874 57.2922
CA 23.5942 -1.93279 81.076
CA 8.02562 -1.86796 62.8546
CA 18.2919 -8.54306 28.5381
CA -6.65808 9.33126 89.3207
CA 18.1473 -7.23936 66.1433
CA 5.38814 5.01284 53.1601
CA 2.99917 -8.6518 89.373
CA -11.1408 -15.4494 50.4922
CA 4.29383 -22.2994 63.7358
CA -0.0665163 -7.48985 83.5082
CA 1.88188 -17.9009 76.5015
CA 13.7641 11.432 79.6078
CA -1.20898 -2.86795 59.0113
CA 10.3289 0.00505156 39.9228
CA 31.0591 -22.6298 54.4945
CA -8.60547 -3.61287 71.0878
CA -0.280927 -18.8791 41.3351
CA 20.6218 -20.9252 66.3003
CA -7.69997 -14.6583 46.5742
CA -0.116168 -1.7548 48.8013
CA 3.75534 -14.6279 62.4578
CA 19.7386 2.81827 9.8618
CA 5.61052 -9.15684 59.7853
CA 15.389 -7.30042 35.0221
CA -8.16487 -1.86237 67.8271
CA 7.49934 -30.2452 55.3795
CA 7.10083 -6.43629 10.217
CA 28.9487 -0.625003 87.3582
CA 15.2255 -21.0484 49.0585
CA 12.3392 -20.9636 51.5954
CA 33.0357 -6.93373 83.2958
CA 14.9484 -24.9254 69.9781
CA 4.78342 -0.4806 40.471
CA 10.6375 -17.9337 58.0154
CA 3.85254 -0.664937 72.148
CA 8.88102 -23.3419 53.9859
CA 20.4511 -22.2708 70.0654
CA 0.0205315 4.52334 47.136
CA 22.3177 -16.5686 84.8369
CA 9.44076 -15.0562 82.4825
CA 22.2987 -13.0154 88.0968
CA 6.65742 -23.8867 72.639
CA -10.0231 6.65086 70.7984
CA 7.81011 -17.8968 72.8265
CA -2.36073 -7.78928 48.0044
CA 22.9924 -2.08873 84.9414
CA 5.78459 -20.0503 58.2081
CA -7.32524 21.2574 18.5721
CA 13.9073 10.6892 17.3093
CA -1.61701 -9.58207 88.8808
CA -0.590261 -26.0014 51.1491
CA -13.8808 -2.79485 45.5757
CA 9.09573 1.69327 49.3034
CA -4.55018 -17.2104 45.7782
CA 23.2753 -23.5229 59.1353
CA 5.87029 15.4394 15.695
CA -2.04694 13.9486 15.3815
CA 4.41214 13.8262 18.4861
CA 5.25267 -17.5926 42.4857
CA 2.95911 20.8376 19.8296
CA 8.88185 9.88826 60.0151
CA 6.83108 -34.2377 62.9983
CA 2.75336 -22.0767 52.7313
CA 4.9391 9.80553 64.1062
CA 1.73335 1.18629 91.0233
CA 22.514 -12.7696 47.5818
CA 21.9804 -9.6076 43.9571
CA 15.6755 -6.0524 31.7981
CA 12.2503 -22.4419 67.1239
CA -4.44623 -33.3035 57.3368
CA -11.7291 3.36214 65.7897
CA 2.97236 20.2359 15.7807
CA -3.36891 -15.2782 54.7162
CA -12.3959 -4.40532 47.1904
CA 9.24959 -4.28617 69.9799
CA 12.1137 3.71452 89.6919
CA 11.9528 1.32245 82.7523
CA 9.79741 4.42554 1.41126
CA 5.32284 -13.746 75.4091
CA 3.48851 -10.4708 38.3182
CA 7.80138 -2.73727 22.758
CA 3.47211 8.82665 60.4472
CA 7.69921 -29.0626 53.3057
CA 4.50117 -18.0046 58.7845
CA -3.94685 -21.3755 56.3678
CA 28.9499 -11.0258 82.8004
CA 17.6703 6.0301 12.4078
CA -14.8915 4.86126 79.2861
CA 23.3458 -20.8415 64.0718
CA -9.83919 4.09349 55.0985
CA 6.75145 -12.1136 81.9085
CA 11.0882 0.434327 61.8755
CA -11.8825 -9.67029 53.3401
CA 3.71558 6.50736 73.2294
CA 3.60733 -36.1916 58.9017
CA -11.194 5.42277 53.9522
CA 34.1052 -15.2791 84.3586
CA 8.69166 -14.6764 80.5368
CA 2.56669 -15.2966 43.0733
CA 10.5448 12.341 18.0837
CA 19.4569 -14.0893 80.5534
CA 18.3689 -7.0234 88.2513
CA 0.85468 -2.56756 73.2716
CA 12.2025 -4.00882 29.0685
CA 7.58547 0.373122 8.51761
CA 6.06274 -2.94676 8.88778
CA 21.058 -8.12965 75.9392
CA -7.33879 10.2139 68.3545
CA -6.89884 4.84994 89.0074
CA 0.757003 0.755334 43.116
CA 3.56804 -30.3185 52.9075
CA 7.69525 -38.3884 56.3001
CA 8.39296 14.9385 17.669
CA 9.95145 -23.9776 67.077
CA 33.7345 -19.556 82.4657
CA 17.5639 9.08686 13.3873
CA 2.10376 -8.70274 68.5311
CA 28.1354 -14.0262 54.1373
CA -6.33602 -5.03961 40.3707
CA 4.79786 2.32701 72.8359
CA 17.1506 0.530205 83.0153
CA 13.3975 -11.0794 83.4103
CA 25.0517 -4.85465 46.2942
CA 3.68796 -18.2159 64.6703
CA 8.46327 -10.6017 38.9412
CA 3.37808 -8.74284 80.3979
CA 19.8168 -18.7028 86.065
CA 11.3543 3.34879 68.2077
CA 18.3662 6.62488 62.7658
CA 4.66141 1.7053 91.904
CA 11.4724 7.01308 65.8053
CA 9.44395 0.815973 92.3837
CA 12.6266 -17.2327 71.6749
CA 13.0713 -6.10317 87.4454
CA 7.77896 -0.758888 60.6105
CA -1.52086 7.81541 84.2913
CA 10.7039 -0.418701 80.5325
CA -3.71362 24.2177 21.613
CA -0.870618 -24.0152 54.5306
CA -11.13 -5.34759 51.746
CA 8.11803 5.76579 48.7364
CA 11.8312 -25.9181 68.5074
CA 11.5919 -11.9943 35.7995
CA -1.57584 -2.97984 51.3936
CA 7.38114 1.28577 52.8359
CA -1.31418 -22.962 68.1207
CA 16.0243 -18.014 76.4744
CA 5.42356 4.55657 82.4456
CA 17.9435 -20.1905 72.9511
CA 5.32589 3.46112 55.1625
CA 19.5245 -11.2936 88.0319
CA 5.09654 -4.97889 57.6037
CA -1.29545 -26.655 64.2592
CA 6.4096 -10.4438 70.7367
CA 10.7704 6.09998 51.8046
CA 20.3025 -18.3633 88.2214
CA 26.1759 -19.6111 65.5802
CA 29.0411 -5.33304 54.2812
CA 17.9236 -20.5261 45.7024
CA -0.568207 6.61065 57.402
CA 16.4179 1.42403 78.7014
CA 16.8278 7.95781 11.1854
CA 36.598 -4.6051 79.8267
CA 0.692055 -20.5198 54.3818
CA 10.9309 27.4016 49.2909
CA 7.90223 -0.00987638 58.6016
CA -0.805342 -14.0868 75.26
CA 16.5693 -0.508701 87.9567
CA 10.2172 0.759556 43.7126
CA -15.1556 -11.4474 53.7962
CA -9.98587 4.58296 86.0242
CA -12.8459 3.12104 82.3915
CA 2.47679 -2.8071 43.3934
CA 11.0579 -9.4373 45.7922
CA -0.330456 6.60774 78.9709
CA 3.6375 -12.8133 48.4175
CA 13.6282 -0.656856 78.8583
CA 6.78273 -5.61449 23.4001
CA 5.84242 11.3237 40.8142
CA 19.5726 -21.4667 87.1808
CA 15.901 -7.60467 24.8291
CA 14.4216 -9.70522 37.9123
CA 4.46965 1.45328 90.1227
CA 8.75319 -1.19672 56.9078
