489

CA 1.59983 -5.13767 93.3014
CA 0.986517 -21.3488 75.7687
CA 16.5012 -13.8235 65.6657
CA 9.50985 2.51064 4.42056
CA -10.1612 0.910817 47.9193
CA 17.9093 -4.25627 87.6041
CA 12.0168 -10.0874 79.975
CA 11.2607 4.92363 5.43379
CA 9.05047 -9.75092 48.5909
CA 5.2267 0.986861 75.1438
CA -4.63953 -5.96207 65.2502
CA 32.0411 -8.13563 87.962
CA 14.7879 -11.8346 41.4
CA 4.15912 -2.25053 74.7608
CA 5.67664 -14.9735 45.4272
CA 1.75103 -8.059 60.6156
CA 9.99463 -7.07072 65.3103
CA 8.21785 3.53052 90.5888
CA 32.8436 -8.34456 54.2636
CA 2.88401 -15.3471 79.8308
CA 7.04611 -17.8402 61.7212
CA 13.6722 -9.9076 86.9602
CA 8.03207 -1.51627 65.7168
CA 0.818969 -3.29787 39.2741
CA 15.5827 -21.0977 48.576
CA 8.46975 -11.53 54.4223
CA 33.6219 -16.2654 64.6137
CA -8.97986 -2.08056 59.2606
CA 6.50903 -2.55018 67.0499
CA 13.3612 -19.8766 55.2516
CA 2.0401 4.64202 90.6036
CA -4.2021 -15.2109 46.4705
CA 20.2176 -19.6563 47.4532
CA -9.59009 22.1691 19.098
CA 6.63943 -24.5564 72.921
CA 27.6605 -15.0212 87.0831
CA 16.6473 -18.8908 50.121
CA 12.7642 5.93575 5.07337
CA 5.49649 -15.7331 48.1934
CA -0.132253 -9.15029 41.601
CA 7.87225 -25.1684 70.3344
CA -5.22664 -12.993 67.2416
CA 3.21698 -4.02168 61.6197
CA -2.77672 -1.12123 56.4397
CA 13.4134 -24.9621 59.7578
CA 3.06899 3.23949 81.7374
CA 22.4502 -12.0975 44.9751
CA 6.94802 -3.76572 59.658
CA 23.2068 -22.953 90.2664
CA -5.9731 26.3347 16.1997
CA 4.66727 -10.7 74.3283
CA -5.39839 -1.43839 67.497
CA 14.4853 2.41788 69.9734
CA 20.1458 -16.5022 49.6283
CA 0.924268 5.82655 59.3363
CA 10.2342 -19.1025 60.5687
CA 10.7482 -13.5667 89.8751
CA 17.9582 -6.64667 20.3278
CA 3.18581 8.12885 82.8985
CA 18.1076 -15.9424 86.0501
CA 4.79144 3.59201 89.8446
CA 21.0052 -6.25363 21.8075
CA 7.01554 -1.58993 25.5657
CA 8.89662 10.8277 43.2354
CA -7.11972 -13.8344 49.2018
CA 14.3958 -13.7817 39.1072
CA -3.59771 -7.18178 67.6594
CA 7.10141 6.93838 77.7154
CA 19.2689 -19.4989 63.6931
CA 17.7113 -13.5151 48.5481
CA -0.41727 -2.60963 44.1844
CA 12.3865 -12.6568 40.5499
CA 24.593 -9.67081 88.7498
CA 16.1873 -20.1431 82.2575
CA -0.929348 0.425228 52.3085
CA 13.4035 -14.819 33.3794
CA 12.8187 -13.8079 21.9413
CA 8.16984 -14.4633 52.476
CA 13.2328 8.17567 52.2675
CA 1.75285 18.7091 15.1653
CA -2.41939 -13.7156 102.695
CA 25.6915 -19.581 51.5024
CA -7.1201 0.320535 58.6275
CA -1.47282 -8.88761 68.4252
CA -3.35754 -15.6715 43.9827
CA 10.7888 -25.7784 60.3801
CA 27.0405 -18.7735 53.0927
CA 7.38385 8.05562 42.8916
CA 21.134 -22.0316 63.483
CA 12.2027 -0.698096 82.846
CA 20.0447 -16.3708 75.9205
CA 11.1117 -1.89511 82.0427
CA 25.61 -15.7705 49.2645
CA -5.01683 -16.4572 76.5834
CA 1.3294 -3.18095 64.1911
CA -6.81182 -4.201 50.9019
CA 9.5458 10.5486 17.9718
CA -14.4089 4.60451 66.8074
CA 12.5668 -23.3098 63.6948
CA 24.0858 -19.3329 50.0878
CA 8.67362 2.20278 62.6974
CA 4.88472 -8.78132 87.2956
CA 6.89192 -11.9772 72.7281
CA 28.5194 -11.2459 85.0368
CA 7.5548 -12.6286 45.1933
CA 3.80016 -29.5543 56.5026
CA -9.35415 -2.62562 50.3943
CA 13.0217 -1.41729 81.2939
CA 5.48905 -10.3021 92.4123
CA -15.9265 -17.43 51.7471
CA 6.45979 -33.4383 59.8734
CA 27.8736 -17.9413 65.0237
CA 11.1758 -26.6468 73.8671
CA 4.12745 -18.1482 67.0674
CA 1.41651 8.10513 67.6408
CA 11.6345 -0.00786066 56.102
CA 9.03536 -11.9685 33.2646
CA -3.56871 -2.52535 51.0017
CA -1.88395 4.74049 87.7572
CA 6.51294 5.99554 83.5716
CA 13.8517 6.78863 71.1788
CA 2.91859 2.55774 71.3166
CA 9.72767 2.13085 57.481
CA 10.9151 -21.7035 52.6054
CA 8.64491 2.64567 65.5088
CA 14.4137 -7.62307 68.9612
CA 23.1141 -8.03991 82.4194
CA 21.9591 -4.95922 37.3165
CA 15.3381 0.722608 9.54147
CA 20.7608 -13.4079 47.2864
CA -8.08255 0.743181 60.2956
CA 5.26328 -11.1599 60.9064
CA -4.95848 -27.1004 56.0079
CA 18.1679 12.0352 55.3676
CA 8.119 12.9933 54.7979
CA 0.0649009 -15.7827 68.9112
CA -5.48499 -0.70869 64.6124
CA 1.85403 -10.2363 75.1667
CA 15.8215 -7.54546 76.1973
CA 15.1634 11.7352 57.5724
CA 17.6684 7.63299 14.2799
CA 9.28477 13.4447 71.4749
CA 10.7001 1.31469 65.8771
CA 26.2859 -13.619 89.4048
CA 2.35037 -3.33694 49.6059
CA 14.1848 15.9284 50.7456
CA 2.52835 4.10207 83.8179
CA 12.4985 -5.3513 34.1602
CA 6.32287 17.8 56.0801
CA 5.78642 3.92479 91.7222
CA -12.7214 2.22052 51.7922
CA 1.65173 -11.2824 93.8868
CA 11.6593 4.83503 63.7477
CA 11.6337 -22.0761 45.6045
CA -1.996 -14.4324 69.9267
CA 11.5353 -8.757 45.7736
CA 0.9359 -18.4825 56.102
CA 9.78904 -26.9853 66.0751
CA -3.09139 23.5645 18.008
CA 19.8467 -10.1434 64.5395
CA 16.501 8.06634 15.7025
CA 14.538 4.19809 97.8265
CA 9.09295 4.38138 88.6901
CA 15.8423 -14.8072 25.5998
CA 18.1007 -10.2484 29.1942
CA 6.89646 17.2459 15.5467
CA 3.00981 -21.9555 74.3939
CA 10.2289 -12.4859 56.8894
CA 4.30823 -17.5407 42.0572
CA 12.7649 -25.8132 70.8604
CA 32.5552 -7.46803 80.7009
CA 11.7262 -2.92739 71.4503
CA 20.2193 -15.0836 71.937
CA 13.2385 -17.6297 55.3834
CA -12.9507 0.337389 50.3477
CA 15.3577 -8.51151 88.151
CA 22.2126 -17.3716 88.1023
CA 8.83838 -19.4377 66.1182
CA 7.15597 -2.2799 63.1021
CA -7.63982 1.96641 86.374
CA -8.2289 5.76318 59.4537
CA 20.055 -9.64073 44.131
CA 16.2661 6.76206 13.0398
CA -12.0154 -16.1337 48.7943
CA 16.7542 -5.8234 78.9619
CA 1.80688 6.48684 63.1953
CA 4.52618 -13.059 55.1823
CA 18.5909 4.74086 4.7748
CA -10.0286 -10.7535 51.9844
CA 29.9203 -18.0295 54.0003
CA 21.1775 -11.8002 84.6418
CA 17.9519 -17.0166 81.9449
CA 8.00233 -29.7287 70.0614
CA 10.8458 5.54663 53.9397
CA -13.6778 -14.8724 55.4717
CA 1.48412 -17.6014 71.4242
CA 16.0839 -14.1678 36.1126
CA 13.708 -8.03975 35.5637
CA 2.72733 -13.9828 56.7702
CA -4.81136 -1.09923 73.2894
CA -0.236944 -13.5909 55.8669
CA 6.51119 -1.88721 40.4534
CA 3.22581 -9.30117 61.4521
CA 10.7793 -1.68043 57.429
CA -3.33753 -18.5109 66.04
CA 19.6717 -14.4194 84.3571
CA 9.75559 -11.8111 80.1032
CA -1.68938 -9.9936 55.8334
CA 8.14183 -10.3897 76.1028
CA 4.27708 -7.39348 72.0799
CA -0.636552 -23.2628 56.1872
CA 20.6705 -5.91213 35.5812
CA 6.23571 -16.3886 63.6122
CA 29.4327 -15.7849 58.9805
CA -11.2671 9.40659 77.7919
CA 20.4636 -7.13851 33.7804
CA 14.257 -4.07361 19.7546
CA 20.4543 0.85931 8.1892
CA 7.11895 -19.5419 68.2568
CA 6.24379 -9.7895 74.6388
CA 11.6687 8.84523 65.907
CA 11.7874 -11.5145 44.2044
CA 29.455 -6.01391 53.8518
CA 2.30202 -2.44306 70.0667
CA 19.7725 -2.81519 16.0675
CA -7.90632 6.46134 78.5052
CA 6.53556 -24.3483 76.0732
CA 11.1129 23.1582 50.8723
CA 5.07362 -1.79099 77.3994
CA 14.6568 1.34429 81.2479
CA 11.9507 -8.20577 27.003
CA 32.7704 -10.8677 56.9337
CA 17.9276 -1.12289 28.8681
CA 9.74248 -29.0203 67.8587
CA -0.684259 -17.7326 55.071
CA 19.4272 -13.0975 65.7673
CA -11.0108 2.34911 82.6174
CA 12.818 -15.2433 75.8681
CA 16.299 1.45688 77.9533
CA 15.2792 3.32636 79.4264
CA 31.9968 -28.6578 49.9988
CA 18.0806 6.35793 10.5238
CA 6.64941 4.4412 77.0658
CA 9.40734 -14.695 65.3119
CA 11.745 -2.96688 85.9966
CA 11.0121 19.3168 51.7286
CA 3.82179 22.3021 21.6315
CA 22.6153 -22.3807 46.3666
CA 13.634 -13.5949 87.8836
CA -1.73659 -30.1035 58.5221
CA -8.44962 -7.72684 47.2923
CA -0.615628 -5.51064 38.8479
CA -9.79931 10.4982 68.7252
CA 5.6723 3.28005 50.0991
CA -1.18502 -12.3543 97.494
CA 2.25809 -5.88536 81.3236
CA 18.3421 -21.327 66.2491
CA 9.70065 14.983 43.7637
CA -12.1007 0.594101 52.6982
CA 15.7657 -19.5682 77.2989
CA 20.4141 -14.3149 43.5559
CA 12.0186 -1.78846 67.6984
CA 6.33532 13.0947 15.2805
CA 1.65307 -4.45799 72.7677
CA -3.09691 8.2073 87.6123
CA 16.6546 7.24191 56.2705
CA 11.7182 9.94437 51.827
CA 10.2351 -1.48074 86.5484
CA 1.89292 -0.199704 44.7903
CA 9.32594 -4.6232 75.158
CA 13.6636 12.4921 45.2303
CA 30.8614 -17.2474 64.7085
CA 11.4798 -6.63428 45.9903
CA -6.7471 16.5869 16.7432
CA 12.639 5.60542 9.36872
CA 10.8031 9.52411 48.4814
CA 16.6165 -7.44018 74.447
CA 20.148 -11.8818 35.5037
CA 11.1194 16.8515 80.8354
CA 27.5182 -16.0516 63.8366
CA 17.2363 -2.58874 83.5898
CA 2.33551 -32.6207 57.8048
CA 35.5057 -6.40183 81.0294
CA -3.47431 -21.801 67.2168
CA 15.9504 13.7999 48.233
CA 4.29867 -1.95366 43.5642
CA 14.4377 -15.2899 86.495
CA 9.94013 12.9332 75.0717
CA 5.04553 -28.8424 60.1079
CA 10.0138 14.2866 77.7245
CA -6.67371 -12.1287 47.2415
CA 8.47766 -13.1939 88.1682
CA 17.1872 -23.6796 65.2297
CA -8.3646 0.633801 72.997
CA 10.3035 -17.3822 54.4759
CA 11.8516 -18.8455 56.7803
CA -8.50097 2.62378 77.0556
CA 17.4645 -2.6442 88.346
CA 3.49053 22.4969 19.3286
CA 6.22154 -20.4195 63.1145
CA 30.9024 -2.55672 87.2584
CA 15.8959 2.73759 8.88404
CA 18.8874 -22.8181 68.1417
CA -7.04245 16.9925 19.4905
CA 5.93797 -7.39538 74.9422
CA 10.6721 9.7228 45.3131
CA 11.0166 17.052 54.0062
CA 17.0195 4.68125 6.28636
CA 21.9844 -10.774 60.0689
CA -5.21734 -22.3593 62.256
CA 1.36549 22.7945 17.7684
CA -7.61457 -0.0868773 74.594
CA 9.27214 -33.0847 56.6219
CA 18.3772 -22.5372 62.8263
CA 17.1013 -9.5057 81.7176
CA 15.7849 -25.3901 55.5785
CA 11.9057 5.97943 92.6298
CA 20.9421 -15.1118 79.9006
CA 2.04743 -0.575138 74.2855
CA 31.0591 -22.6298 54.4945
CA -8.60547 -3.61287 71.0878
CA 7.93554 4.51113 7.29428
CA 9.38812 18.6871 53.053
CA 18.4491 -13.0278 43.1522
CA 14.5215 8.84024 19.5335
CA -0.410299 -16.469 56.6166
CA 19.7386 2.81827 9.8618
CA 7.43287 2.27386 70.3222
CA 28.8469 -20.6239 59.4722
CA -5.08966 -10.6892 45.6958
CA 7.49934 -30.2452 55.3795
CA -10.5005 7.43028 74.2236
CA 14.6632 -4.01766 24.1804
CA 12.7003 26.8747 50.0446
CA 3.91568 -8.94339 74.5564
CA 33.0357 -6.93373 83.2958
CA -5.85551 -0.608038 69.1031
CA 12.1139 -1.69321 84.5218
CA 9.79939 -2.23579 27.8447
CA 2.6648 -0.572557 39.5774
CA -6.34996 -0.714452 62.2039
CA 20.4511 -22.2708 70.0654
CA -4.3863 -22.9095 64.2898
CA 22.3177 -16.5686 84.8369
CA 33.8742 -30.8198 46.9951
CA -12.0234 9.98268 71.8551
CA 11.0244 2.72778 63.1891
CA -11.727 2.53553 63.1917
CA 10.0791 0.0765313 76.3121
CA 7.1924 -22.0459 65.672
CA -0.740455 -14.4879 99.1971
CA 17.4358 -11.593 33.8735
CA -7.32524 21.2574 18.5721
CA -10.271 16.4018 16.2939
CA 2.81219 6.92297 69.5858
CA 1.32798 -12.5405 50.2715
CA 10.9556 -10.3742 85.2807
CA 9.26576 -13.6867 73.9407
CA 18.2849 -5.73852 35.1705
CA -4.94006 19.9449 15.7216
CA 5.87029 15.4394 15.695
CA 14.0375 23.5815 52.0138
CA 17.818 6.7246 15.8742
CA 27.0773 -6.21585 84.072
CA 2.95911 20.8376 19.8296
CA 29.4672 -15.2855 55.791
CA -3.05804 0.121367 62.6774
CA 3.55919 2.84074 74.6419
CA -4.24243 -20.2367 65.8079
CA -11.1515 0.152377 59.5351
CA 16.3548 4.32233 61.942
CA -6.27531 4.39424 91.1486
CA 18.7767 -7.07988 72.1819
CA 0.739265 -19.7145 43.4744
CA -6.57656 -1.75011 59.6124
CA -11.7291 3.36214 65.7897
CA -0.522379 6.07187 84.3859
CA -3.36891 -15.2782 54.7162
CA 16.8787 -16.0893 76.3022
CA -12.271 5.65611 78.6204
CA 15.0237 -7.42697 78.8383
CA 8.26339 7.75736 79.4588
CA 9.79741 4.42554 1.41126
CA 8.19878 -12.1914 58.4911
CA 11.0804 12.1596 51.3685
CA 7.80138 -2.73727 22.758
CA -1.30868 -8.09725 93.2244
CA 22.4808 -19.5464 89.3676
CA -2.91681 1.46057 64.4951
CA 0.671496 -8.0812 92.6194
CA 28.9499 -11.0258 82.8004
CA 2.83601 -18.6749 59.2943
CA 6.69179 -3.33571 52.1854
CA -4.63703 -1.07084 51.7735
CA -7.83218 -4.01883 72.665
CA 6.75145 -12.1136 81.9085
CA 11.0882 0.434327 61.8755
CA 15.7899 -24.6321 71.0556
CA 14.9679 -3.93329 71.3255
CA 16.2124 -6.08191 71.5927
CA 7.71151 15.7059 56.4682
CA 14.3218 -1.88863 88.8226
CA 17.7605 -8.07646 83.65
CA 15.7507 9.16725 20.9512
CA 20.2155 -7.26375 19.4067
CA 12.5027 -11.8605 56.6493
CA 14.4755 4.45083 93.3611
CA -7.87531 4.58041 75.9129
CA 12.2025 -4.00882 29.0685
CA 7.58547 0.373122 8.51761
CA 7.1857 10.191 78.058
CA 12.2576 -12.9061 25.9445
CA 26.0052 -22.9137 65.5792
CA 17.5662 3.85115 3.44286
CA 0.757003 0.755334 43.116
CA 18.4953 -4.09777 26.293
CA 23.9305 -15.3469 65.4109
CA -0.370639 -17.2731 59.9996
CA 8.76546 12.1057 16.4526
CA 11.8581 -12.6763 91.1585
CA 22.3599 -7.22458 34.6781
CA 0.850742 -7.44357 84.6504
CA 26.9402 -13.2925 50.4915
CA 3.83483 -14.9823 69.6434
CA 15.8567 1.65528 17.84
CA -9.11403 9.0825 72.2372
CA 7.12912 -17.1932 58.9289
CA -2.77935 -16.2478 95.4078
CA 3.68796 -18.2159 64.6703
CA 8.05162 1.80568 77.1594
CA -0.712938 -7.6611 56.4128
CA 19.7462 1.81826 18.2289
CA 7.25756 3.20347 63.8658
CA -8.78803 10.977 66.7466
CA 15.7166 -11.0203 77.0973
CA 11.4724 7.01308 65.8053
CA 17.8862 -4.05069 22.5403
CA 9.06009 -14.1557 58.6347
CA 13.0713 -6.10317 87.4454
CA -8.79082 -4.38141 58.2089
CA -2.64411 -14.1772 45.8779
CA -7.04263 -20.0455 64.0157
CA 7.00166 -3.5952 49.4699
CA 7.96092 -17.2975 64.7852
CA 15.1477 -24.5049 77.2822
CA 20.3141 14.2136 57.3057
CA 4.41895 -18.0474 58.3756
CA 11.5919 -11.9943 35.7995
CA 5.91135 9.81759 14.7449
CA 7.38114 1.28577 52.8359
CA 5.45187 1.73969 51.4373
CA 11.1904 -23.7442 61.8073
CA 15.1477 7.05196 49.4415
CA 16.2721 -12.7543 31.192
CA 3.55372 -1.72303 46.6593
CA -2.96525 -25.9559 56.2586
CA 31.9779 -24.5769 52.6908
CA 16.2712 -22.8519 80.9462
CA 15.3197 4.86103 89.8665
CA 27.2043 -16.9614 53.5671
CA 20.3025 -18.3633 88.2214
CA 27.9906 -16.6347 69.1598
CA 20.2801 -8.04878 22.8405
CA 6.17947 2.83674 87.0865
CA 8.5587 0.745885 57.1683
CA 11.4132 -0.439986 79.9883
CA 17.2677 -8.51454 90.0628
CA 3.04775 -16.3707 43.404
CA 4.50594 -22.1273 53.3969
CA 4.53834 -5.58409 83.3776
CA 3.32632 -22.0461 50.8439
CA -0.805342 -14.0868 75.26
CA -7.6295 0.814192 63.684
CA 16.2945 -8.13609 42.0542
CA -15.1556 -11.4474 53.7962
CA 24.351 -18.7818 55.1438
CA -12.8459 3.12104 82.3915
CA 17.6959 -1.30675 15.0668
CA 20.1568 -24.0412 64.7126
CA 32.9598 -19.0054 57.965
CA 6.13366 5.90982 79.1413
CA 18.6981 -5.0481 64.576
CA 12.4131 4.01721 8.4987
CA 20.7737 -4.98907 81.0774
CA 16.6242 11.0613 18.3966
CA -9.38407 -8.73019 49.7554
CA 27.6173 -13.6914 81.4416
CA 4.46965 1.45328 90.1227
CA 3.94248 -12.8774 95.9737
