489

CA -0.324564 2.38855 74.7296
CA 15.7492 3.52592 82.1268
CA 16.5012 -13.8235 65.6657
CA 30.4489 -21.3218 62.2801
CA -10.1612 0.910817 47.9193
CA 17.9093 -4.25627 87.6041
CA 12.0168 -10.0874 79.975
CA 11.2607 4.92363 5.43379
CA 9.05047 -9.75092 48.5909
CA 11.7599 8.28519 68.6574
CA 0.938729 -15.6812 64.0819
CA 32.0411 -8.13563 87.962
CA 14.7879 -11.8346 41.4
CA 4.15912 -2.25053 74.7608
CA -1.3153 -0.336301 64
CA -1.19433 -1.53769 43.6144
CA 8.21775 -5.91892 37.5602
CA -0.190065 -7.21549 88.7512
CA 27.1312 -25.9388 59.742
CA -4.82054 -10.8539 94.5277
CA 8.96614 16.6061 78.1321
CA 20.0673 13.8284 48.8094
CA 7.50614 -8.19646 58.5188
CA 29.63 -12.7326 88.8679
CA 15.5827 -21.0977 48.576
CA -3.23798 21.8734 17.3771
CA 33.6219 -16.2654 64.6137
CA 0.818535 -10.9065 72.3844
CA 9.62326 3.07053 82.2844
CA 7.58824 -16.1556 66.3649
CA 4.68844 -7.03852 41.6712
CA -4.2021 -15.2109 46.4705
CA 22.9073 -18.1133 61.3202
CA 15.2801 -9.60717 70.6391
CA 22.3337 -2.96984 38.0897
CA -0.186107 2.50233 83.8261
CA 8.17447 -26.3994 60.1086
CA 12.7642 5.93575 5.07337
CA 5.49649 -15.7331 48.1934
CA -0.132253 -9.15029 41.601
CA 7.87225 -25.1684 70.3344
CA 12.4761 -2.33804 61.6833
CA -0.533441 -2.69889 58.2167
CA -12.3075 -7.38102 69.986
CA 18.7278 -3.24139 92.0501
CA 18.2226 2.14789 66.4262
CA 4.55872 -4.90927 63.2771
CA 6.94802 -3.76572 59.658
CA 23.6833 -16.2209 62.6019
CA -5.9731 26.3347 16.1997
CA 8.51584 11.0632 47.2184
CA -5.39839 -1.43839 67.497
CA 14.4853 2.41788 69.9734
CA 20.1458 -16.5022 49.6283
CA 0.924268 5.82655 59.3363
CA 1.97598 -21.7712 66.8622
CA 2.49742 -0.774523 50.2607
CA 17.2311 15.1386 46.066
CA 19.492 -20.7787 51.8874
CA 26.0203 -12.9378 46.4121
CA 14.4054 -12.8956 30.564
CA 13.2084 -24.9008 69.282
CA 17.9754 -16.6974 61.4698
CA 26.1672 -12.9539 60.0552
CA 7.79998 -19.2387 42.0365
CA 14.3958 -13.7817 39.1072
CA 8.86973 -4.99151 56.2698
CA 24.5481 -19.9974 51.2502
CA 19.2689 -19.4989 63.6931
CA 17.7113 -13.5151 48.5481
CA 15.5038 -20.6583 67.0745
CA 14.0124 -9.05082 66.0707
CA -1.07468 5.18084 65.4404
CA 16.1873 -20.1431 82.2575
CA 13.1151 -4.10194 76.7839
CA 4.9711 -22.7094 61.5277
CA -11.3674 -0.958838 53.0954
CA 26.9704 -12.1143 90.4308
CA 13.2328 8.17567 52.2675
CA 1.75285 18.7091 15.1653
CA 5.09072 -9.01625 60.9818
CA -16.0504 4.86683 53.1098
CA -7.1201 0.320535 58.6275
CA 6.77861 1.00506 79.4978
CA 11.5757 3.02629 92.5106
CA 10.7888 -25.7784 60.3801
CA 0.862736 -1.08436 38.9087
CA 7.38385 8.05562 42.8916
CA 14.6578 6.10203 53.8245
CA -2.23099 -18.7522 72.0482
CA -7.75467 0.934641 71.9768
CA 10.9856 16.493 51.3967
CA -2.96853 19.2102 19.384
CA -5.01683 -16.4572 76.5834
CA 4.01669 -1.08491 44.2098
CA 20.8751 -15.4097 45.4954
CA 9.5458 10.5486 17.9718
CA 14.8716 -19.9884 69.5408
CA 12.5668 -23.3098 63.6948
CA 11.7797 -0.624889 63.8654
CA -9.83105 2.33488 81.1144
CA 15.1246 -12.5502 34.3844
CA 20.1531 -7.06838 92.2943
CA 28.5194 -11.2459 85.0368
CA 1.12928 -22.5439 60.2573
CA 3.68206 -4.86873 84.9389
CA -9.35415 -2.62562 50.3943
CA 9.43036 13.71 76.8472
CA 5.48905 -10.3021 92.4123
CA 1.33311 -1.40764 61.5798
CA 1.04541 -3.8284 65.3109
CA 10.2465 -30.0571 61.9967
CA 11.1758 -26.6468 73.8671
CA 4.12745 -18.1482 67.0674
CA -3.09322 -12.1999 53.8698
CA 17.0155 -9.08356 71.0783
CA 18.0856 3.00545 69.7084
CA 31.3978 -16.7001 66.5469
CA 21.3488 -11.6678 55.6876
CA 6.51294 5.99554 83.5716
CA 6.1087 -0.34885 51.4271
CA 2.91859 2.55774 71.3166
CA 9.72767 2.13085 57.481
CA 17.5829 -7.37218 26.9925
CA 8.64491 2.64567 65.5088
CA 23.7464 -9.89569 93.7592
CA 11.6164 10.2519 52.0202
CA 0.0699886 -20.0624 58.4161
CA 15.3381 0.722608 9.54147
CA 25.2447 -21.2153 88.6202
CA -3.97297 3.52128 67.3003
CA 5.26328 -11.1599 60.9064
CA 18.3732 -15.1564 50.9625
CA 18.1679 12.0352 55.3676
CA 14.0439 9.37451 16.0563
CA 20.9306 -0.377734 9.51393
CA 17.7571 -20.5125 56.6341
CA -4.72291 2.92112 92.9546
CA 17.3103 -6.14251 32.5955
CA 17.8189 1.61172 91.1955
CA 18.1406 -16.2454 77.7657
CA 19.8609 -21.2058 89.3562
CA 19.4158 -12.5463 61.9359
CA -8.62898 -12.8596 53.3528
CA 3.69917 -3.3781 66.6076
CA 14.1848 15.9284 50.7456
CA 15.4499 -17.8945 71.9718
CA 8.9098 -4.40668 38.529
CA 21.0267 -24.036 88.931
CA 12.3293 0.403493 65.8824
CA -12.7214 2.22052 51.7922
CA 1.65173 -11.2824 93.8868
CA 4.30649 -7.617 82.1502
CA 11.6337 -22.0761 45.6045
CA -1.996 -14.4324 69.9267
CA 11.5353 -8.757 45.7736
CA 15.3613 4.26183 7.76471
CA 10.677 -19.8408 50.7509
CA -3.09139 23.5645 18.008
CA 19.8467 -10.1434 64.5395
CA 13.6651 -1.26603 78.8951
CA 14.538 4.19809 97.8265
CA 0.336759 -7.35089 73.8628
CA 19.9947 -4.90926 93.5616
CA 11.7512 -11.9068 80.7583
CA 11.4201 -9.01855 78.2035
CA 23.9971 -24.0908 87.7154
CA 6.32665 -14.181 42.3957
CA 4.30823 -17.5407 42.0572
CA 12.7649 -25.8132 70.8604
CA 32.5552 -7.46803 80.7009
CA 17.868 -15.4861 47.7635
CA 20.2193 -15.0836 71.937
CA 13.2385 -17.6297 55.3834
CA 19.075 -20.6175 69.5656
CA 22.109 -14.732 53.6824
CA 22.2126 -17.3716 88.1023
CA 27.8002 -3.49548 82.9447
CA 9.67471 6.3354 62.8817
CA -7.63982 1.96641 86.374
CA 7.90939 -13.3307 76.9126
CA 8.2665 14.8298 13.8159
CA 24.9343 -21.2976 92.8949
CA -6.64208 -14.2157 46.1098
CA -2.56861 0.272217 60.0783
CA 14.596 -18.321 74.1458
CA 4.52618 -13.059 55.1823
CA 18.5909 4.74086 4.7748
CA -10.0286 -10.7535 51.9844
CA 15.8797 -1.43733 83.1633
CA -4.41959 26.4952 18.593
CA 10.3926 -13.3067 80.828
CA -8.40778 -3.75041 71.5997
CA 10.8458 5.54663 53.9397
CA -13.6778 -14.8724 55.4717
CA 1.48412 -17.6014 71.4242
CA 7.48757 -5.46088 40.7523
CA 13.708 -8.03975 35.5637
CA 3.89053 -17.3618 47.3426
CA 9.60173 -8.06502 30.3058
CA 7.37021 15.3084 75.9533
CA 6.51119 -1.88721 40.4534
CA 26.2332 -19.5187 87.8757
CA 14.7107 -3.53117 37.3292
CA -3.33753 -18.5109 66.04
CA 37.5816 -14.297 66.053
CA -0.115827 0.229715 66.1038
CA -1.68938 -9.9936 55.8334
CA 7.16149 4.78821 67.9614
CA 4.27708 -7.39348 72.0799
CA -0.636552 -23.2628 56.1872
CA 15.0834 0.301025 71.8945
CA 1.36367 -1.16462 48.4574
CA 5.11485 -3.24159 37.1501
CA -11.2671 9.40659 77.7919
CA 26.9376 -16.7858 51.7942
CA 5.54101 6.90144 89.0588
CA 0.558662 -9.32796 65.1945
CA 7.11895 -19.5419 68.2568
CA 14.3835 2.15632 91.4583
CA 19.9842 -8.33256 68.4725
CA 11.7874 -11.5145 44.2044
CA -11.062 -6.15428 72.7832
CA 4.19773 -1.31945 50.6342
CA 6.8254 -2.53236 77.9229
CA 14.8775 -7.85047 72.399
CA 6.53556 -24.3483 76.0732
CA 11.1129 23.1582 50.8723
CA -4.84444 1.78649 67.2735
CA 14.6568 1.34429 81.2479
CA 11.9507 -8.20577 27.003
CA 32.7704 -10.8677 56.9337
CA 17.9276 -1.12289 28.8681
CA 9.74248 -29.0203 67.8587
CA -0.684259 -17.7326 55.071
CA -3.87362 5.73187 83.2811
CA 26.5134 -16.7216 71.7525
CA 12.818 -15.2433 75.8681
CA 29.0369 -6.31409 84.4613
CA -3.73614 8.84125 84.2421
CA 31.9968 -28.6578 49.9988
CA -4.99845 4.21628 86.2696
CA 25.7961 -23.9408 46.4541
CA -2.01054 -16.668 67.7843
CA 20.2589 -7.88985 70.9187
CA 11.0121 19.3168 51.7286
CA 3.82179 22.3021 21.6315
CA 22.6153 -22.3807 46.3666
CA 11.7734 -8.7603 85.7565
CA 7.0265 -1.60688 53.3799
CA -8.44962 -7.72684 47.2923
CA 7.02759 -8.86206 54.7206
CA -9.79931 10.4982 68.7252
CA -0.600361 -4.57933 47.4092
CA -1.18502 -12.3543 97.494
CA 2.25809 -5.88536 81.3236
CA 18.3421 -21.327 66.2491
CA 6.83747 7.8012 52.8296
CA 8.53111 -6.00641 58.1814
CA 31.3258 -18.3911 52.9094
CA 20.4141 -14.3149 43.5559
CA 12.0186 -1.78846 67.6984
CA 6.33532 13.0947 15.2805
CA 5.21192 4.12253 88.2812
CA -5.56372 -0.63311 89.9222
CA 16.6546 7.24191 56.2705
CA 9.06031 -31.8867 66.4324
CA -9.44514 5.68326 47.6742
CA 17.9509 -18.1383 80.2641
CA 1.69768 -2.57741 42.9539
CA 10.2837 -9.43263 90.1232
CA 24.1581 -11.595 96.0933
CA 11.4798 -6.63428 45.9903
CA -6.7471 16.5869 16.7432
CA 8.54362 -6.50264 49.5725
CA 10.8031 9.52411 48.4814
CA 9.74359 -12.9606 45.57
CA -1.97255 -19.9699 58.2332
CA 11.1194 16.8515 80.8354
CA 14.7017 6.79695 78.3833
CA -6.21236 -2.70423 87.0071
CA 13.9498 9.79542 13.0641
CA 35.5057 -6.40183 81.0294
CA 22.5421 -13.0412 58.4554
CA 10.2842 -16.1457 55.5268
CA 26.6275 -17.6253 68.1141
CA 9.31616 8.50561 63.7501
CA 9.94013 12.9332 75.0717
CA 5.04553 -28.8424 60.1079
CA -13.5914 6.45587 75.1471
CA -6.67371 -12.1287 47.2415
CA -12.3871 -2.83141 74.7893
CA 4.63099 -6.20898 75.4042
CA 14.7336 -10.0226 74.1374
CA -1.39441 5.5192 80.6579
CA 18.0798 -15.8536 33.6723
CA -8.50097 2.62378 77.0556
CA 17.9206 -6.04879 92.2995
CA 3.49053 22.4969 19.3286
CA 17.8754 -20.9182 60.4367
CA -7.13799 -9.29917 97.8475
CA 15.8959 2.73759 8.88404
CA 18.8874 -22.8181 68.1417
CA -7.04245 16.9925 19.4905
CA 16.3076 17.9268 53.3829
CA -6.748 -16.8654 82.0439
CA 11.0166 17.052 54.0062
CA 2.22167 -21.8117 58.887
CA 21.9844 -10.774 60.0689
CA 19.653 -23.6504 61.9195
CA 1.36549 22.7945 17.7684
CA -7.61457 -0.0868773 74.594
CA 9.27214 -33.0847 56.6219
CA 13.3458 3.37333 7.0019
CA 5.64758 -4.9276 73.1779
CA 15.7849 -25.3901 55.5785
CA 31.249 -17.5082 55.3026
CA 4.68834 -6.789 89.2928
CA 17.4528 -19.3107 67.9309
CA 20.8918 -8.06957 55.2879
CA 0.766706 4.30519 79.1591
CA 7.93554 4.51113 7.29428
CA -10.2599 2.69443 67.9428
CA 18.4491 -13.0278 43.1522
CA 23.2612 -10.4597 53.5397
CA 12.1415 -21.61 56.2635
CA 19.7386 2.81827 9.8618
CA 7.43287 2.27386 70.3222
CA 28.8469 -20.6239 59.4722
CA -8.1566 -2.06146 72.677
CA 7.49934 -30.2452 55.3795
CA -10.5005 7.43028 74.2236
CA 14.6632 -4.01766 24.1804
CA 12.7003 26.8747 50.0446
CA 3.91568 -8.94339 74.5564
CA 17.3819 -22.9517 71.0605
CA 13.0763 -7.96316 31.6127
CA 3.43245 -22.4383 67.6888
CA 9.79939 -2.23579 27.8447
CA 16.881 -1.8464 24.4822
CA 19.3572 -11.8226 41.0959
CA 20.4511 -22.2708 70.0654
CA 0.0520445 -21.3885 42.8855
CA 22.3177 -16.5686 84.8369
CA 33.8742 -30.8198 46.9951
CA 13.8244 -4.65112 35.4941
CA 11.0244 2.72778 63.1891
CA 7.92174 -6.54258 56.3448
CA 11.6219 -1.51921 77.2651
CA 3.89518 -7.33529 64.3984
CA 12.6506 7.22777 82.8861
CA 17.4358 -11.593 33.8735
CA -11.08 1.47754 79.8091
CA 18.0378 -2.9087 36.4063
CA 2.81219 6.92297 69.5858
CA 1.32798 -12.5405 50.2715
CA 20.5676 -11.096 67.0357
CA 12.9378 -21.7063 44.0696
CA -1.7973 24.7411 14.8514
CA -4.94006 19.9449 15.7216
CA 5.87029 15.4394 15.695
CA 14.0375 23.5815 52.0138
CA 17.818 6.7246 15.8742
CA 27.0773 -6.21585 84.072
CA 18.1583 -9.37791 66.2272
CA 29.4672 -15.2855 55.791
CA -4.30176 -12.6997 56.0246
CA 19.3832 -21.9086 64.5673
CA 5.32481 16.9342 17.2384
CA 13.8654 1.37009 7.21264
CA 16.3548 4.32233 61.942
CA -6.27531 4.39424 91.1486
CA 18.7767 -7.07988 72.1819
CA -9.08546 3.2969 58.1498
CA 33.3124 -23.4404 54.2527
CA -11.7291 3.36214 65.7897
CA 28.7713 -25.8314 61.5505
CA 0.564882 -21.3171 56.8195
CA 16.8787 -16.0893 76.3022
CA 16.688 5.01611 18.4144
CA -4.73734 -13.8187 65.3781
CA 8.26339 7.75736 79.4588
CA 9.79741 4.42554 1.41126
CA 8.19878 -12.1914 58.4911
CA 11.0804 12.1596 51.3685
CA -0.745075 -1.2814 51.0751
CA -1.30868 -8.09725 93.2244
CA 22.4808 -19.5464 89.3676
CA 31.2857 -18.277 61.2984
CA 10.6427 14.9567 48.1469
CA 28.9499 -11.0258 82.8004
CA 2.83601 -18.6749 59.2943
CA 6.69179 -3.33571 52.1854
CA -4.63703 -1.07084 51.7735
CA 9.65848 -22.9243 60.6879
CA 6.75145 -12.1136 81.9085
CA 11.0882 0.434327 61.8755
CA -0.603266 8.34802 62.4496
CA 5.15174 22.0203 16.7593
CA 15.1565 -10.9501 66.0674
CA 7.71151 15.7059 56.4682
CA 14.3218 -1.88863 88.8226
CA 17.7605 -8.07646 83.65
CA 16.3115 -13.0944 52.1375
CA 20.2155 -7.26375 19.4067
CA 12.5027 -11.8605 56.6493
CA 14.4755 4.45083 93.3611
CA 14.4743 -26.9809 71.6388
CA 14.7655 3.54564 19.7063
CA 7.58547 0.373122 8.51761
CA 7.1857 10.191 78.058
CA 18.4235 1.21959 14.3637
CA 35.4144 -4.58354 85.4102
CA 17.5662 3.85115 3.44286
CA 0.757003 0.755334 43.116
CA 18.4953 -4.09777 26.293
CA 23.9305 -15.3469 65.4109
CA 10.8621 27.239 54.1945
CA 21.2229 -19.244 49.7293
CA 28.0195 -20.6369 62.6719
CA 14.1361 3.63765 77.9507
CA 0.850742 -7.44357 84.6504
CA 26.9402 -13.2925 50.4915
CA -5.20772 21.8332 16.9498
CA 13.3472 -12.4239 73.8967
CA -9.11403 9.0825 72.2372
CA 7.12912 -17.1932 58.9289
CA -2.77935 -16.2478 95.4078
CA 18.3265 -6.92389 90.0861
CA 6.04597 -20.3852 44.7011
CA 17.95 -9.89291 63.7932
CA 19.7462 1.81826 18.2289
CA 5.86465 26.0748 17.1554
CA 15.8188 -9.62473 68.2369
CA 5.32177 -4.13183 65.785
CA 11.4724 7.01308 65.8053
CA 17.8862 -4.05069 22.5403
CA 9.06009 -14.1557 58.6347
CA 1.76536 -8.65493 78.5653
CA -8.79082 -4.38141 58.2089
CA -6.71593 -2.77446 61.6062
CA -7.04263 -20.0455 64.0157
CA 20.1682 -14.893 79.7484
CA -12.3489 6.76052 76.747
CA 15.1477 -24.5049 77.2822
CA 1.99991 -6.20989 67.0505
CA 23.1255 -24.3421 64.261
CA 9.45095 3.05646 10.5201
CA 14.3197 -20.8038 84.1172
CA 7.38114 1.28577 52.8359
CA 12.6455 -0.843492 56.095
CA 18.8223 -17.0916 86.3388
CA 13.0149 -4.13947 26.5926
CA 16.2721 -12.7543 31.192
CA 3.55372 -1.72303 46.6593
CA -2.96525 -25.9559 56.2586
CA 31.9779 -24.5769 52.6908
CA 16.2712 -22.8519 80.9462
CA 15.3197 4.86103 89.8665
CA -2.00052 7.53087 68.8608
CA 20.3025 -18.3633 88.2214
CA 13.4375 -19.8836 52.507
CA 20.2801 -8.04878 22.8405
CA 1.00599 -7.7277 62.8226
CA 8.81553 -4.01775 49.224
CA 11.4132 -0.439986 79.9883
CA 14.387 -0.529847 19.9657
CA 3.04775 -16.3707 43.404
CA 7.44778 6.01825 86.1331
CA 4.53834 -5.58409 83.3776
CA 32.2186 -10.277 92.0734
CA -0.805342 -14.0868 75.26
CA 26.5061 -14.907 55.8651
CA -9.98073 -2.0913 57.6957
CA -15.1556 -11.4474 53.7962
CA 15.5828 12.4813 14.781
CA 4.84655 -10.0625 80.6126
CA 17.6959 -1.30675 15.0668
CA 20.1568 -24.0412 64.7126
CA 6.57298 1.17467 65.5087
CA 7.89131 -16.1735 43.6889
CA 18.8646 13.7391 44.6111
CA 12.4131 4.01721 8.4987
CA 20.7737 -4.98907 81.0774
CA 15.9648 6.00583 10.8813
CA 12.3995 -0.941104 70.1982
CA -1.76807 -18.1487 59.5715
CA -8.94658 -11.3753 46.846
CA 3.94248 -12.8774 95.9737
