489

CA 16.8736 1.44249 86.7863
CA 4.70929 -23.1273 71.2128
CA 14.0466 -4.19611 79.5262
CA 5.12968 0.664274 4.71138
CA -10.1612 0.910817 47.9193
CA 18.2275 -8.91483 47.3896
CA 10.4471 -10.5919 49.4787
CA 19.9356 -7.23685 32.6138
CA 9.05047 -9.75092 48.5909
CA 18.8725 14.8602 47.1677
CA 23.5271 -11.2426 65.6259
CA 32.7422 -17.317 62.1288
CA 18.1332 -6.24251 49.5498
CA 5.21547 -10.9351 87.0849
CA 20.4509 -1.13159 90.571
CA -4.35865 -17.7018 59.2848
CA 8.21775 -5.91892 37.5602
CA 2.228 -16.2662 87.8096
CA 27.1312 -25.9388 59.742
CA -4.82054 -10.8539 94.5277
CA 16.7862 -19.3689 45.7331
CA 20.0673 13.8284 48.8094
CA 1.4992 6.93434 61.7217
CA 12.1166 -24.3212 60.7406
CA 19.0436 -9.87463 72.0714
CA -3.23798 21.8734 17.3771
CA 5.94277 -34.4262 57.0272
CA 12.0029 -1.99887 53.7916
CA 27.3359 -17.2869 87.0403
CA 7.58824 -16.1556 66.3649
CA 15.8373 -21.4431 85.1316
CA 22.7526 -12.4231 40.7089
CA 0.880483 6.28586 58.2861
CA 4.56707 -6.18041 62.6958
CA 4.61799 14.21 77.3932
CA 6.24413 -17.443 65.3812
CA 7.97815 2.64752 67.3344
CA 19.1792 -13.586 82.827
CA 7.79939 -11.6876 58.0937
CA 0.252252 -1.95366 43.6632
CA 16.7867 -0.135411 64.3162
CA 11.4418 -24.916 56.6363
CA -3.64095 25.9315 15.4589
CA 9.65906 11.3939 79.0796
CA 29.3435 -25.728 55.7956
CA -11.8102 -1.93189 59.5517
CA 13.8599 2.67553 3.41628
CA 0.504714 2.21115 62.2489
CA 20.7715 -16.3682 81.0515
CA -5.9731 26.3347 16.1997
CA 19.7277 -9.9964 48.899
CA -5.39839 -1.43839 67.497
CA 35.4833 -15.013 64.8492
CA 5.848 -28.2077 68.3897
CA 32.2276 -29.4324 55.7844
CA 2.57572 -15.4122 64.4482
CA 8.13128 -31.9313 71.7079
CA -1.36385 -16.1832 75.9995
CA 20.8639 -23.2198 76.5586
CA 18.1339 -0.824296 38.3881
CA 7.2355 8.47493 78.1104
CA 10.4865 -18.1061 76.5863
CA 9.92761 -11.9475 48.2668
CA 2.08171 -8.3027 66.3281
CA 7.79998 -19.2387 42.0365
CA 1.49847 -10.0274 88.6703
CA 6.20565 -24.1452 70.1828
CA 16.8847 -18.1905 86.4327
CA 22.5213 -17.7376 56.9101
CA 11.1318 -15.2538 71.1678
CA -0.775921 -11.8918 52.4825
CA 14.0124 -9.05082 66.0707
CA 4.19712 -13.3808 64.5275
CA -10.7169 4.7443 78.2075
CA 25.1675 -12.925 89.68
CA 22.4547 0.406749 66.6228
CA 24.9912 -17.0913 57.247
CA 11.0491 -13.5904 91.2203
CA 13.2328 8.17567 52.2675
CA 11.0455 -6.96715 86.7066
CA 10.7665 -5.33904 51.1718
CA -9.21486 -0.0392762 53.4583
CA 22.6378 1.15291 87.523
CA 7.08631 -14.5759 53.1273
CA 7.15601 -22.2161 59.8248
CA 10.2153 -3.3977 50.1386
CA 24.1606 -20.9137 76.3954
CA 7.93204 -11.3479 49.8436
CA -3.98631 -14.6799 47.4454
CA 22.1916 -5.71952 76.3239
CA -5.88063 -8.11031 72.7143
CA 10.0536 -13.3491 73.103
CA -2.96853 19.2102 19.384
CA 13.7573 1.37222 65.5221
CA 22.6711 -19.2387 88.8361
CA 14.5947 -21.79 52.9196
CA 9.5458 10.5486 17.9718
CA 14.0972 1.35967 78.3826
CA 16.6156 -8.09481 42.5048
CA 16.7694 -15.8357 53.049
CA 29.3392 -15.263 58.8719
CA -4.47543 0.893049 64.7312
CA 7.08279 -26.1639 53.1745
CA 28.5194 -11.2459 85.0368
CA -5.62491 -17.4552 47.932
CA 13.8398 4.76633 61.3957
CA -10.5532 -5.32718 49.1458
CA -4.76029 -1.37624 59.3966
CA 25.9063 -11.8904 87.4358
CA -1.23577 -5.16382 58.2721
CA 9.8014 17.5491 48.9613
CA 34.9133 -2.27609 78.7297
CA 11.1758 -26.6468 73.8671
CA 14.0176 2.72484 83.9406
CA 13.2083 -4.32666 43.1423
CA 16.4193 -21.5318 68.4024
CA 8.94768 -17.2185 67.7889
CA 31.3978 -16.7001 66.5469
CA 17.4659 -12.963 72.3294
CA 25.7988 -9.94655 72.8202
CA 6.1087 -0.34885 51.4271
CA 3.25432 -8.97813 87.9119
CA 19.2734 -0.557609 66.213
CA 11.9865 -28.718 60.5601
CA 18.6568 -10.2893 53.0396
CA 10.5678 -12.102 69.9338
CA -2.38635 -19.6942 75.6313
CA 21.4392 -8.8403 81.8121
CA 4.97786 -2.94009 77.6952
CA 4.55296 -4.3801 81.3759
CA 18.4337 -14.6103 62.9526
CA 9.32135 5.11236 3.33469
CA 10.603 -3.43811 36.0687
CA 18.1679 12.0352 55.3676
CA 14.0439 9.37451 16.0563
CA 11.1075 -3.80083 21.7278
CA 0.628824 -7.00872 62.1727
CA -6.01399 3.64031 84.0436
CA 17.7213 -0.343804 24.9909
CA 17.8189 1.61172 91.1955
CA 22.2163 16.2287 46.1035
CA 12.4132 -16.1572 91.0707
CA 18.7342 -3.66812 92.1657
CA 4.26106 -26.3775 61.886
CA -3.92708 -18.241 74.5063
CA 26.7112 -12.3959 66.3129
CA 10.8482 -3.49415 82.3247
CA 13.9625 -11.9392 36.042
CA -0.268186 0.920416 51.8579
CA 9.09051 8.20424 1.82576
CA 13.8339 9.61124 17.8461
CA 1.65173 -11.2824 93.8868
CA 22.3036 5.37287 4.53214
CA 19.6218 -11.2243 81.9143
CA -6.74854 -16.9291 57.6533
CA 4.97599 -3.6181 79.5066
CA 22.1751 -19.3376 44.6153
CA 19.4082 -14.6316 44.6475
CA -5.46566 0.825669 60.0014
CA 21.0771 -11.0012 66.0212
CA 19.3389 -11.27 37.8605
CA 19.6417 15.1815 43.3997
CA 14.6698 -19.2816 68.8619
CA -9.4258 -11.8227 69.0766
CA 10.8717 -1.11654 5.37787
CA 11.4201 -9.01855 78.2035
CA 11.2699 -8.40482 47.5224
CA -3.60144 -9.07801 88.3977
CA 4.30823 -17.5407 42.0572
CA 12.7649 -25.8132 70.8604
CA 31.2577 -20.0649 67.4933
CA 14.7954 0.82546 4.48135
CA 13.7172 -17.9942 50.8376
CA -1.34644 1.16694 41.2349
CA 37.1702 -15.3603 58.2557
CA 22.109 -14.732 53.6824
CA 26.5798 -14.2748 81.6381
CA 8.82901 -30.0831 57.1767
CA 15.1095 -7.40459 70.852
CA 6.62343 -11.1024 73.0819
CA 17.5382 2.18386 17.005
CA -0.725839 -7.13602 66.136
CA 0.790601 -14.4619 72.4327
CA 15.3342 -17.6973 71.0145
CA 15.015 -6.98889 54.1147
CA 9.5636 -27.4752 64.0475
CA 24.4324 -14.0067 66.9193
CA -0.0138361 -10.1079 91.5684
CA 7.91383 -9.5541 46.8661
CA 25.9232 -16.6056 37.9088
CA 10.3175 0.343 67.8457
CA -0.966189 -14.0224 75.5326
CA -8.40778 -3.75041 71.5997
CA 10.8458 5.54663 53.9397
CA 9.82266 -7.81396 26.4636
CA 13.6437 -12.8365 61.9308
CA 9.12089 -3.46648 34.1574
CA 21.1207 -19.2908 80.5112
CA 19.759 2.94708 5.19205
CA 9.60173 -8.06502 30.3058
CA 7.37021 15.3084 75.9533
CA 6.51119 -1.88721 40.4534
CA 0.428729 0.0191713 61.6688
CA 14.7107 -3.53117 37.3292
CA 31.937 -10.7002 55.7963
CA -11.4825 -3.64658 53.2009
CA 27.5759 -29.4024 62.9704
CA -8.59652 -12.1678 71.3826
CA 10.9856 18.5303 72.2731
CA 7.81215 -17.4304 61.3519
CA -7.32642 -0.197589 70.0955
CA 20.0605 3.93131 88.9139
CA 19.9296 14.2834 56.6796
CA 13.4334 -13.964 67.5718
CA 10.5048 -9.11756 56.341
CA 13.9379 -23.3944 65.6382
CA 23.9174 14.8555 50.7466
CA 12.2493 3.32794 46.4294
CA 14.255 15.3773 51.8848
CA 24.9397 -15.6897 83.2943
CA 18.7596 -25.1705 70.1137
CA 11.894 -14.0536 75.4268
CA 18.9198 -0.55797 63.6758
CA 4.19773 -1.31945 50.6342
CA 15.759 -11.4712 91.2907
CA 12.525 -22.9678 46.7654
CA 6.53556 -24.3483 76.0732
CA 11.1129 23.1582 50.8723
CA 18.0023 -23.4172 68.263
CA 6.9506 -9.30163 51.6607
CA -11.7418 -7.21748 73.2851
CA 10.0892 4.54859 61.4825
CA 17.9276 -1.12289 28.8681
CA 23.5759 -31.8876 61.1428
CA 23.3399 -9.94599 73.8458
CA 13.7526 1.50217 61.9842
CA -2.34527 -10.3307 69.0941
CA 10.1199 10.1712 68.359
CA 29.0369 -6.31409 84.4613
CA -4.21341 -3.77643 62.9732
CA 1.58748 -9.28582 43.936
CA 19.1954 -3.32979 49.9619
CA -0.61104 17.9755 19.0819
CA -7.37659 -8.84972 45.9583
CA 20.2589 -7.88985 70.9187
CA 16.8975 -11.0288 40.3778
CA 23.511 3.05811 85.6816
CA 14.0768 5.01896 50.1536
CA 10.4722 21.3435 56.2555
CA 26.2285 -24.4518 60.7799
CA -8.44962 -7.72684 47.2923
CA -10.2146 7.38375 82.9061
CA 32.9861 -14.8075 58.3121
CA 21.6629 -17.9365 52.0295
CA 9.56054 18.5763 78.7612
CA 23.955 -17.7101 85.9402
CA 33.9289 -6.40036 77.7502
CA 5.63481 -18.4352 40.18
CA -7.82574 -7.39026 49.6293
CA 34.3708 -18.2571 57.4041
CA 13.4681 2.01133 76.3684
CA 7.0187 2.82943 8.20552
CA 6.33532 13.0947 15.2805
CA -3.2295 25.937 17.7504
CA 8.3299 -16.7675 53.6364
CA 14.4305 -5.61572 52.9769
CA 2.36825 -13.6362 92.823
CA -3.719 -20.9997 74.4744
CA 9.58406 -20.0169 56.2448
CA 6.12445 -7.03054 26.8645
CA 10.2837 -9.43263 90.1232
CA -1.5219 -9.45756 52.2725
CA 11.4798 -6.63428 45.9903
CA 17.5383 -18.9315 63.4553
CA 12.9593 -14.886 51.3715
CA 11.144 3.07838 73.2329
CA 31.6617 -12.8833 59.7117
CA 4.48771 -8.84499 44.8734
CA 28.2398 -10.0703 86.9003
CA -0.47732 2.18566 64.9135
CA -10.1032 12.029 73.3714
CA 13.9498 9.79542 13.0641
CA 19.3405 -17.1177 82.3906
CA 22.5421 -13.0412 58.4554
CA 8.08492 -0.542409 84.4914
CA 7.60272 8.41181 82.6308
CA 23.8425 -2.89032 76.654
CA 11.0228 8.98952 64.1092
CA 25.3803 -23.8298 56.5055
CA 16.0188 -14.6889 61.3704
CA 12.4324 11.958 16.0161
CA 10.1556 9.87514 4.65663
CA 4.63099 -6.20898 75.4042
CA 15.2957 -16.4554 75.4812
CA 3.60351 -13.5048 50.6137
CA -2.13928 -13.985 94.6834
CA -5.03926 -12.3283 69.6845
CA 17.9206 -6.04879 92.2995
CA 11.9962 -12.6575 48.1926
CA 7.96246 -7.55471 73.4835
CA 11.0255 -12.1306 77.8152
CA 27.8002 -10.4214 57.9001
CA -1.50517 -9.32663 62.9941
CA -7.04245 16.9925 19.4905
CA 19.6705 -12.7575 49.279
CA -0.828569 6.9248 71.2815
CA 22.0976 -6.59418 25.9802
CA 2.22167 -21.8117 58.887
CA 35.9027 -13.2063 57.525
CA 10.9245 -25.3201 65.1354
CA 1.36549 22.7945 17.7684
CA -10.3984 -5.17139 68.9127
CA 15.6003 10.0572 69.5966
CA 13.3458 3.37333 7.0019
CA 22.0157 -3.321 97.075
CA 25.9253 -14.0816 43.983
CA 10.9338 16.5866 51.308
CA 18.4701 -20.3201 79.1234
CA -8.41213 -10.9381 47.34
CA 20.8918 -8.06957 55.2879
CA 3.96038 3.65901 8.97238
CA 4.13539 1.0274 9.6947
CA 14.5802 -26.2659 67.0634
CA 14.4035 -16.8633 61.5227
CA 10.567 13.3143 5.29345
CA 1.69524 -17.0762 74.7721
CA 17.1635 -12.5304 41.9208
CA 7.43287 2.27386 70.3222
CA 25.7136 -18.2617 53.8488
CA 9.25139 -14.9237 88.0264
CA 7.49934 -30.2452 55.3795
CA -10.5005 7.43028 74.2236
CA 20.0821 -20.7694 75.0053
CA 18.7427 -18.9649 77.7083
CA -11.3693 -11.9605 50.1213
CA 32.9055 -16.6217 67.532
CA 10.8706 20.5993 58.9142
CA 19.2572 7.11378 14.262
CA 18.1617 8.39754 91.6683
CA -3.68875 -7.79871 59.238
CA 19.3572 -11.8226 41.0959
CA -2.9918 -13.4675 50.0141
CA 21.8162 14.5547 44.0089
CA 22.3177 -16.5686 84.8369
CA 11.524 5.04414 82.3385
CA 20.7798 -2.59808 63.9754
CA 17.1223 -7.32274 35.3036
CA 13.7912 -19.1736 60.5813
CA -1.41042 24.5906 18.9817
CA 18.0283 -9.36042 25.6505
CA 11.6358 -23.8522 54.6757
CA 10.0455 0.957294 82.3423
CA 12.5075 -7.81834 24.3578
CA 18.0378 -2.9087 36.4063
CA 5.45553 -1.1335 79.5549
CA 1.32798 -12.5405 50.2715
CA 9.03962 14.8564 73.6369
CA 13.3147 -9.58529 34.7386
CA 17.5509 -14.3417 53.8589
CA -4.94006 19.9449 15.7216
CA 7.02605 -4.59667 65.2254
CA 3.01013 -1.09634 41.3428
CA 7.30411 23.003 46.1651
CA 18.9537 -8.90706 74.2597
CA -1.7422 -15.2366 52.6773
CA -3.11757 10.5882 70.8578
CA -3.82271 1.60363 83.3138
CA 15.8479 -1.09396 63.0383
CA 5.32481 16.9342 17.2384
CA 13.8654 1.37009 7.21264
CA 25.0182 -31.1819 62.8478
CA -10.0139 6.95658 85.8408
CA 9.32099 -28.7348 59.7824
CA -9.08546 3.2969 58.1498
CA 11.155 -16.4039 67.0321
CA 8.01287 9.278 53.7535
CA 12.3139 -13.25 35.505
CA 21.0686 -10.8725 53.1722
CA -6.0804 -9.7809 45.0471
CA 16.688 5.01611 18.4144
CA 16.192 -22.0102 72.0724
CA 0.980754 3.34184 42.6119
CA -0.00551948 -17.4977 76.7389
CA 21.8007 -17.241 62.9202
CA 36.249 -8.37205 81.0129
CA 20.4156 -22.7406 82.6601
CA 28.4384 -23.6955 63.7841
CA -0.426839 3.41011 59.2029
CA 13.1361 -24.7874 53.4203
CA 15.048 -13.9504 70.915
CA 29.1451 -10.7956 81.8169
CA 0.996895 -11.6782 89.9856
CA -6.23432 7.78977 67.8609
CA 4.47837 18.7123 15.1598
CA 1.15398 -24.6114 67.6306
CA -11.7931 6.60109 86.0092
CA -5.3859 23.0349 16.7781
CA -11.6836 -2.93256 56.0426
CA 16.6682 -14.9055 86.4744
CA 22.5376 -20.4198 82.9796
CA -0.893651 -10.5513 54.0557
CA 9.43611 16.7282 59.1248
CA 5.96615 6.11718 76.78
CA 8.84812 -25.467 69.406
CA 10.2487 22.9499 46.4982
CA 11.0934 20.3296 53.6259
CA 14.4755 4.45083 93.3611
CA -2.43186 -17.2704 91.9237
CA 18.9333 -20.2357 73.5581
CA 16.9543 0.0932895 75.8322
CA 30.8086 -6.64457 81.4022
CA 12.2895 -11.1378 40.7111
CA 4.88076 -3.83763 52.687
CA 7.72288 -6.33458 46.8899
CA 0.757003 0.755334 43.116
CA -9.67288 -2.15849 70.5416
CA 6.70629 -0.441349 4.60147
CA 18.1777 -13.5869 87.3159
CA -3.23888 -14.5085 97.6113
CA 24.0367 -10.7647 58.2978
CA 20.8163 -14.4974 81.8486
CA 8.37486 1.65067 56.0852
CA 2.73137 0.97799 11.1331
CA 12.8921 -21.595 56.7803
CA 9.33099 0.98495 52.7542
CA -7.82246 3.93602 70.6507
CA 7.12912 -17.1932 58.9289
CA 5.6063 -16.7985 46.6376
CA 18.3265 -6.92389 90.0861
CA 20.8361 -13.8365 56.83
CA 5.64103 -19.1347 44.1219
CA 11.0196 -15.0459 89.5528
CA 5.86465 26.0748 17.1554
CA 15.8188 -9.62473 68.2369
CA 10.3386 -5.52704 54.5419
CA 22.2026 -16.3555 88.6496
CA -7.38494 2.78362 55.6186
CA 15.779 -7.73816 94.6755
CA 22.0702 12.6293 51.687
CA -2.13363 6.59484 63.0093
CA 4.01846 -11.5912 88.8157
CA -1.75947 27.634 16.3389
CA 35.5342 -16.1306 57.8772
CA 18.5435 -15.554 73.9103
CA -2.69669 22.3696 19.2123
CA 1.99991 -6.20989 67.0505
CA 9.99833 -7.48872 32.3538
CA 9.45095 3.05646 10.5201
CA -9.51608 2.07225 55.2362
CA 20.2473 -18.01 41.1101
CA 10.6572 10.8238 15.8879
CA 14.1127 -11.9962 32.2939
CA -7.61425 -2.36144 57.8907
CA 7.10867 0.229373 66.3466
CA 7.18375 19.9937 14.3237
CA 17.594 -2.85197 96.5255
CA 31.9779 -24.5769 52.6908
CA -2.21482 -1.64617 70.4528
CA 4.45139 3.77417 69.1857
CA 2.91292 -0.890562 79.1185
CA 19.3622 -6.39474 27.7743
CA -1.037 -12.5145 70.981
CA 20.2801 -8.04878 22.8405
CA 8.84745 12.6978 6.02255
CA 14.5361 -11.5462 56.0053
CA 11.4132 -0.439986 79.9883
CA 14.387 -0.529847 19.9657
CA 22.64 -2.25603 92.9062
CA 10.554 -34.3205 67.3835
CA 2.25347 -21.3034 70.5521
CA 15.4704 -13.1597 75.9188
CA 10.369 1.08024 78.7853
CA 26.5061 -14.907 55.8651
CA 6.80743 6.51102 19.1486
CA 16.5625 -5.6704 27.4403
CA 15.5828 12.4813 14.781
CA 29.5341 -19.1824 67.1822
CA 17.6959 -1.30675 15.0668
CA -4.02872 -0.410735 66.3667
CA 14.7636 12.9516 51.7431
CA 6.32189 2.07468 66.6316
CA 17.6624 -3.0096 63.4055
CA 6.32083 -14.2115 57.048
CA -5.5465 -8.16755 50.5563
CA 15.9648 6.00583 10.8813
CA 4.24952 0.969269 82.843
CA -1.76807 -18.1487 59.5715
CA 2.43125 -9.89126 86.4807
CA 23.968 -19.4945 40.8925
