489

CA 9.04606 -10.3531 83.6166
CA 14.8383 -2.82347 47.8094
CA 14.0466 -4.19611 79.5262
CA 23.4556 -8.21775 51.0098
CA 13.1185 -3.5107 22.5001
CA -0.394626 -8.43227 72.938
CA 14.1105 -16.798 80.0222
CA 13.7109 -3.01245 2.37854
CA 24.3389 -19.1804 82.7572
CA 18.6598 1.87295 85.7812
CA 22.0051 -9.78705 75.0553
CA 6.61707 -14.0142 46.7811
CA 1.3146 -18.6099 64.2128
CA 5.21547 -10.9351 87.0849
CA 12.1061 16.5567 57.4778
CA 9.13482 13.3001 62.432
CA 9.9767 12.2169 74.9287
CA 26.887 -3.61244 59.0009
CA 26.064 -32.0543 62.6706
CA 4.75428 25.2376 18.8586
CA 31.9179 -9.3536 80.9974
CA 17.8084 -13.021 77.4841
CA -5.40992 -4.63329 63.0617
CA 2.76128 -17.2308 92.251
CA -3.94943 -14.6989 52.3625
CA 16.7528 -2.53347 17.0792
CA 6.25319 -5.73219 34.2834
CA 9.1874 9.78376 16.0663
CA 14.3439 -1.8588 62.1821
CA -0.188237 -16.6545 44.0021
CA 2.32546 -2.5681 40.4152
CA 25.3882 -5.63264 69.1012
CA 6.20615 -11.4513 95.5787
CA 20.3993 -0.756828 75.8211
CA 5.25128 -19.977 53.1613
CA 14.8517 2.96876 58.6425
CA 7.97815 2.64752 67.3344
CA 7.67807 -4.62237 53.2044
CA -0.768947 -20.2003 45.5365
CA 3.96287 -7.67511 55.1792
CA 16.7867 -0.135411 64.3162
CA 20.0989 -1.95374 64.3384
CA 6.54367 -15.0772 49.1666
CA 9.65906 11.3939 79.0796
CA 22.1271 -5.59479 90.0483
CA 11.2427 3.38349 84.1799
CA 13.8599 2.67553 3.41628
CA 9.51214 -2.41442 39.9379
CA 4.85362 30.7598 19.3155
CA -5.9731 26.3347 16.1997
CA 7.90167 -13.417 90.2724
CA 5.1631 -1.8563 33.9396
CA 13.0153 -13.9567 53.4786
CA -0.232905 -12.8725 75.525
CA 5.28461 20.8163 15.8925
CA 2.57572 -15.4122 64.4482
CA 4.76883 -11.3293 71.8671
CA 25.5766 -19.2482 79.6577
CA 17.9687 -2.13093 86.5593
CA 11.5138 5.05749 73.2367
CA 25.2958 -5.81452 28.4603
CA 12.8463 -5.87386 80.1982
CA -0.279157 -0.441956 59.5251
CA 19.5279 -27.3332 54.2159
CA 16.8432 -5.17267 91.1211
CA -11.1125 -14.0116 67.1611
CA 9.43305 -6.72262 34.6201
CA 16.8847 -18.1905 86.4327
CA 28.6391 -5.01429 60.6317
CA 25.236 -11.644 72.6031
CA -8.4148 12.753 71.2295
CA 32.3632 -9.14978 70.7376
CA 2.83107 -4.33176 51.0005
CA -10.7169 4.7443 78.2075
CA 9.37197 4.37289 72.8844
CA 8.57826 -12.6414 44.6378
CA -1.57931 -5.76149 39.7594
CA 15.6055 15.277 56.2611
CA 10.9142 0.371195 0.350306
CA -2.2486 -20.4344 54.1796
CA 24.8627 -9.23517 52.6482
CA 15.7907 -8.26159 29.6098
CA 19.2288 -23.6667 62.3007
CA 21.8999 -25.6746 72.9307
CA 4.82681 1.24855 44.0971
CA 16.7106 -3.99324 28.3738
CA 16.1799 -6.36723 69.4631
CA 16.9345 -8.8199 91.4633
CA -9.88073 -9.74635 56.9751
CA 23.339 11.5767 49.3132
CA 24.3845 -23.4633 59.1996
CA 15.4858 -21.6039 62.3307
CA 4.55609 -4.43698 88.2283
CA 17.1739 -7.99591 57.0724
CA 11.9455 -10.9061 86.5795
CA 14.5947 -21.79 52.9196
CA 7.33241 -2.73237 43.8636
CA 12.5734 16.5809 50.764
CA -6.29511 -3.76817 55.0322
CA 8.29339 0.961782 75.4752
CA 1.21446 -11.791 95.3553
CA 8.23607 -6.35703 31.6219
CA 17.9176 -11.9929 54.9915
CA 28.5194 -11.2459 85.0368
CA 16.6287 -11.6491 56.8791
CA 13.8398 4.76633 61.3957
CA -10.5532 -5.32718 49.1458
CA 16.3514 -3.48793 68.1204
CA 24.8193 -15.4429 66.5763
CA 17.4028 -14.0504 48.2114
CA 17.596 0.571617 19.5777
CA 34.9133 -2.27609 78.7297
CA 3.71012 -17.6624 52.9733
CA 26.7123 -12.8482 83.3451
CA 21.9868 -2.51517 29.6691
CA 23.2547 -5.10956 85.8874
CA 35.9264 -5.30168 80.2605
CA 35.6593 -9.244 61.9276
CA 17.4659 -12.963 72.3294
CA 23.9188 -22.6964 54.2676
CA 8.29175 -11.5382 90.2096
CA 18.9191 3.40274 92.5522
CA 1.54092 17.9841 18.6931
CA 12.7486 -10.0639 91.218
CA 11.979 -4.81688 29.2292
CA 9.71815 11.3209 56.7017
CA 13.1504 -16.0164 57.1102
CA 12.9056 3.31321 51.9844
CA 33.6496 -6.66773 71.3724
CA -1.50593 -8.92087 58.4344
CA 19.5707 -14.4345 84.7136
CA 9.32135 5.11236 3.33469
CA 15.0504 -13.4856 65.592
CA 1.84654 -18.1878 41.1358
CA 5.90252 -20.1008 62.3603
CA -1.77927 -17.4486 48.3334
CA 2.98316 -18.8584 67.6467
CA 34.6923 -4.59523 83.4989
CA 8.93837 -8.19814 82.1303
CA 8.65905 -2.40102 33.7698
CA 4.57098 -5.59898 79.5239
CA -9.63658 -0.299113 68.4377
CA 29.388 -2.56219 77.942
CA 6.62982 25.0783 47.4525
CA 18.2827 -6.8555 94.8246
CA 9.97777 -29.1646 73.7518
CA 2.13304 -9.64226 53.438
CA 11.6634 6.54368 55.6608
CA 21.6285 -3.43631 77.9362
CA 20.4104 -20.8552 74.1514
CA -1.9845 -5.40044 60.5073
CA 19.1347 -0.492915 96.1948
CA 17.3111 -28.092 58.7186
CA 6.53439 -17.2595 60.3323
CA 3.81088 -6.67734 83.2733
CA 30.3108 -16.6312 78.7907
CA 11.4085 -11.4361 41.5957
CA 22.559 15.7317 16.9236
CA 18.85 -6.21925 27.0974
CA 10.3032 -6.27854 1.62669
CA 4.13921 -6.15694 46.1324
CA 6.16931 -7.17658 60.4369
CA 24.7509 -9.20111 70.9895
CA 4.20981 -14.1552 40.9919
CA 12.7322 -9.1413 85.137
CA 11.4152 -12.8756 55.0561
CA 16.3892 -2.84724 1.42954
CA 22.8453 -19.006 46.3656
CA 11.7612 -12.056 36.8392
CA -14.223 -5.21201 53.4495
CA 17.1386 -5.05353 52.4184
CA 21.4706 -10.963 79.3326
CA 10.1797 0.944619 34.8623
CA 36.09 -7.42944 75.5998
CA 10.3885 -7.20279 70.9896
CA 3.02654 -2.39674 69.6774
CA 17.2624 -22.1268 53.4492
CA 16.2673 10.5636 58.4188
CA -9.42792 -3.7663 44.7001
CA 25.0288 -15.5789 58.1842
CA 17.5382 2.18386 17.005
CA 7.19501 17.9321 53.9442
CA -6.30031 -11.7359 56.6315
CA 10.8377 -13.2612 97.079
CA 9.42403 12.5809 16.8798
CA 2.51616 -20.112 68.8653
CA 3.68351 -9.61157 68.6315
CA 22.1785 -6.85631 92.4001
CA -2.85821 -16.3287 76.3968
CA 20.4227 12.0901 16.081
CA 15.9522 -20.5631 69.8491
CA -6.62942 -11.0681 70.9915
CA 11.6927 6.82247 57.4705
CA 10.3282 -11.7607 52.2762
CA 13.6191 -7.70917 57.8215
CA 34.8532 -14.8361 73.0713
CA 13.414 -0.966752 52.543
CA 0.797362 -17.6932 61.1721
CA 20.0785 -21.7626 72.2859
CA -9.22651 25.2535 16.0747
CA 15.9897 -8.3727 50.5636
CA 15.6761 -13.1729 45.4234
CA 14.3687 7.99059 55.5867
CA 9.81178 -5.44976 81.3819
CA 21.007 -29.8041 69.9341
CA 20.2541 0.585336 26.8141
CA 27.5759 -29.4024 62.9704
CA 14.8446 -18.7431 61.9829
CA 12.2273 -5.6105 69.8462
CA 18.2049 -15.5639 41.537
CA -7.32642 -0.197589 70.0955
CA 15.2568 -0.411789 -1.24789
CA 19.9296 14.2834 56.6796
CA 22.5593 15.2947 59.1514
CA 22.16 -28.4857 56.9204
CA 13.9922 0.652478 13.3288
CA -1.07568 -16.969 76.1968
CA 22.9455 -19.2531 56.1038
CA 1.03132 30.5557 16.9794
CA -7.33607 27.8257 17.5714
CA 14.5193 -10.8481 60.8126
CA 19.8524 -10.6978 58.387
CA 18.9867 -4.40524 77.8463
CA 16.9655 -29.4862 60.255
CA -5.09493 5.70239 69.4174
CA 37.496 1.37185 71.1813
CA 2.71899 -19.8659 43.6938
CA 11.1129 23.1582 50.8723
CA 31.7397 -19.829 61.6679
CA 26.0066 13.6379 59.577
CA 9.79422 1.74374 82.0569
CA 11.9638 -11.7075 68.7056
CA 15.6185 1.73341 62.8842
CA -6.43956 -5.58265 56.7502
CA -6.02129 -3.44357 50.9312
CA 7.15131 -2.04463 83.1321
CA 17.4447 -24.9348 58.2992
CA -1.44852 -2.49081 60.5788
CA 7.13431 -10.4496 61.559
CA 0.994053 -18.3478 52.9832
CA 5.89891 -15.0121 88.3209
CA 18.5913 -32.7705 69.8739
CA -5.59785 -8.49945 50.5744
CA 12.7623 -16.0656 55.0589
CA -4.42263 -9.45523 60.2075
CA 12.7821 -24.3101 67.1958
CA 5.75367 -1.18156 72.9278
CA 17.1553 -20.7634 40.4449
CA 20.4307 -20.6876 65.6209
CA 22.7493 -29.7907 67.3883
CA 33.2494 -12.049 69.1687
CA -10.2146 7.38375 82.9061
CA 18.1942 -1.59228 65.3906
CA 29.224 -14.1382 80.9605
CA 38.4994 -20.0703 57.6952
CA 23.6805 -4.11026 77.6268
CA 13.0993 16.8894 61.0462
CA -2.97155 -20.205 47.3943
CA -3.69222 28.3032 18.3473
CA 3.67687 -1.08535 78.8847
CA -1.13285 -18.5983 70.5468
CA 15.0094 5.20478 85.4714
CA 6.33532 13.0947 15.2805
CA 9.7108 -0.997848 71.8492
CA 14.0578 -2.92908 64.9365
CA -1.75926 -8.82022 93.5619
CA 16.2798 -0.716627 22.3765
CA 22.1296 -11.9206 29.6288
CA 21.1845 -15.1686 54.6901
CA -0.112309 1.80706 45.4744
CA 10.2837 -9.43263 90.1232
CA 9.53429 12.0853 81.0764
CA 30.4716 -8.0503 60.8695
CA 10.834 -27.5031 65.4379
CA 32.1801 -5.06954 69.7043
CA 17.7975 -15.4336 38.6353
CA 14.6021 23.5521 47.8508
CA -5.89977 28.0414 15.2313
CA -3.77948 -13.9714 74.1314
CA 15.9008 -5.57592 43.0637
CA -10.1032 12.029 73.3714
CA 13.9498 9.79542 13.0641
CA 4.79408 -17.9974 56.0301
CA 22.8958 -17.528 82.3402
CA 21.1268 -12.7025 57.4547
CA -0.65549 -5.90686 88.0455
CA 20.3765 11.7362 54.6043
CA 11.0228 8.98952 64.1092
CA 23.087 -14.4667 64.4402
CA 16.0188 -14.6889 61.3704
CA 12.1254 14.8495 62.355
CA 33.996 -6.30316 76.413
CA 11.0551 -4.3271 37.653
CA -6.07701 -5.87983 60.3002
CA 17.5809 -10.4382 36.8103
CA 14.5342 -5.605 56.1778
CA 42.6006 -15.2139 58.4183
CA 16.4356 12.8144 57.9403
CA 28.4171 -16.9475 76.6633
CA 6.53505 -10.0476 78.1382
CA 30.7297 -24.7354 63.3115
CA 9.17363 -20.1565 69.6591
CA 8.87531 -11.8738 62.8046
CA -4.49217 -6.87235 49.5362
CA 22.3328 -9.0325 59.7827
CA 15.3282 -13.2738 78.547
CA 22.0976 -6.59418 25.9802
CA 36.2651 -3.86215 72.7698
CA 21.769 -20.1087 53.8078
CA 24.6369 -12.3537 82.4156
CA 1.36549 22.7945 17.7684
CA 29.6814 -3.95486 80.2424
CA 24.5441 -10.4424 54.0712
CA 13.3458 3.37333 7.0019
CA -10.8684 -11.1455 67.7968
CA 30.4557 0.564439 75.2788
CA 5.99299 23.244 18.6934
CA 16.8282 -4.90334 94.6289
CA 31.7316 -2.66308 81.4908
CA 38.8899 -6.69053 80.4014
CA 3.87015 19.5107 17.9781
CA 8.44469 27.0089 48.8841
CA 3.03705 -22.572 45.2749
CA 17.9556 0.137448 52.2042
CA 44.3714 -16.4863 60.6938
CA 18.699 1.85144 25.3861
CA 23.5323 -7.66134 67.9161
CA 0.691138 -10.1794 75.7602
CA 15.0883 2.46649 66.7803
CA 9.25139 -14.9237 88.0264
CA 11.6501 -20.9568 56.9856
CA -10.5005 7.43028 74.2236
CA 19.4213 0.122331 81.6345
CA -3.80143 -5.76295 62.8715
CA 17.1468 -0.301865 16.5863
CA 0.569259 -4.70319 47.7069
CA 6.30808 -4.2982 32.9085
CA 19.2572 7.11378 14.262
CA 5.51093 -14.4012 95.9206
CA 18.4774 -4.60025 92.6313
CA -0.184467 -11.2334 79.3047
CA 13.2637 -23.5141 64.4923
CA 33.1259 0.791522 68.913
CA 18.4501 -29.4652 59.231
CA 9.3738 7.56691 7.64959
CA 1.61921 -19.4586 56.0374
CA 9.80266 6.28509 78.075
CA 3.73269 -10.1836 48.7768
CA 23.1071 -14.023 60.3364
CA 17.7341 -23.313 75.6626
CA 2.08221 -0.781821 45.4808
CA 4.01192 -5.10416 39.693
CA 27.1252 -15.3204 55.9804
CA 15.51 -17.9958 79.733
CA 12.3076 -0.856599 48.4104
CA 23.9849 -24.8819 74.8252
CA 39.4326 -18.2414 64.6753
CA 7.16911 -11.5169 73.442
CA 14.044 -4.04716 51.4331
CA 12.5111 0.242112 50.7133
CA 3.55619 -0.855362 74.3322
CA 30.8203 3.53056 72.5171
CA 2.94304 17.2883 19.6258
CA 10.7405 -11.9781 93.8123
CA 1.36928 -6.47718 47.5342
CA -3.11757 10.5882 70.8578
CA 20.7451 -24.8709 75.1183
CA 11.0756 -5.27518 26.4679
CA 5.32481 16.9342 17.2384
CA 17.2193 6.56988 17.5865
CA 37.6218 -11.4818 58.7758
CA 5.71105 -11.5159 68.3276
CA 15.2577 -5.04383 29.0865
CA 15.9477 -19.4258 38.3512
CA 11.155 -16.4039 67.0321
CA 16.4167 -5.02353 4.03472
CA 24.5509 -29.5171 69.0466
CA 36.8979 -10.3102 60.1414
CA 23.5802 -11.561 66.1464
CA 16.688 5.01611 18.4144
CA 16.192 -22.0102 72.0724
CA 6.88982 -1.4254 67.4814
CA 14.0772 -18.2443 56.1885
CA 30.2356 -10.6789 80.1511
CA 36.249 -8.37205 81.0129
CA 5.11848 -6.15025 47.6503
CA 28.4384 -23.6955 63.7841
CA 1.45015 -3.04859 80.6317
CA 14.2356 -4.3732 -0.404737
CA 10.9409 1.32093 71.5756
CA 29.1451 -10.7956 81.8169
CA 17.9272 -27.427 52.2132
CA 28.2131 -22.2416 79.0108
CA -14.0264 -11.1062 56.6224
CA 28.4008 -6.47782 78.216
CA 40.5665 -23.6478 56.6007
CA 12.6694 1.06354 2.11349
CA -1.65023 -16.3863 45.2603
CA 12.7114 -20.0925 70.1489
CA 22.5376 -20.4198 82.9796
CA -0.893651 -10.5513 54.0557
CA 25.5827 -10.2824 67.2505
CA 15.267 -23.1019 74.9874
CA 21.139 -25.5839 61.7893
CA 8.33923 12.6195 77.7832
CA 11.0934 20.3296 53.6259
CA 20.019 -24.1359 53.0547
CA 23.6263 -13.8454 86.4181
CA 11.7097 -4.56011 53.5041
CA 38.4457 -16.6565 57.6726
CA 6.02682 -10.8374 38.4968
CA 5.19503 -4.92991 44.8031
CA 10.2689 -3.3899 65.6657
CA 3.87452 -4.91925 75.492
CA -0.740166 -7.45473 61.0315
CA 10.6011 14.3431 15.4719
CA 1.75628 -9.38797 84.5996
CA 27.5244 -24.2931 59.9473
CA 20.7389 -15.3445 68.4817
CA 19.5134 -16.8787 43.6903
CA 36.336 -3.41117 79.0527
CA -3.3135 -7.4157 94.0501
CA 20.5098 -20.1536 69.04
CA 31.1108 -4.67634 62.0764
CA 20.7533 -1.08654 -1.68171
CA -7.82246 3.93602 70.6507
CA 28.1228 -14.3289 51.0497
CA 18.8204 -9.01553 58.8391
CA 19.6639 -8.88025 76.0357
CA 9.09651 -1.47805 67.2307
CA 5.64103 -19.1347 44.1219
CA 12.3572 -11.3188 52.9687
CA 5.86465 26.0748 17.1554
CA 16.5047 -2.43219 53.099
CA 22.2859 -17.2906 42.5131
CA 13.0036 11.1763 18.1327
CA 5.46024 -20.9104 56.5337
CA 18.5791 -15.8518 49.2517
CA 22.0702 12.6293 51.687
CA 26.8246 -3.82819 81.4523
CA 16.0129 0.350907 24.5774
CA -1.75947 27.634 16.3389
CA 13.7722 -4.4226 47.6686
CA 23.7177 -13.6094 83.7666
CA 20.5303 -18.1945 47.6
CA 4.70431 -27.8984 63.7575
CA 38.7996 -8.39844 58.3611
CA 9.45095 3.05646 10.5201
CA 8.76543 16.1666 51.2428
CA 20.2473 -18.01 41.1101
CA 11.7098 -5.74242 32.5353
CA 14.0372 -31.1155 59.0659
CA 36.4862 -18.9201 70.7566
CA 24.377 -4.58543 62.8926
CA 18.2591 -11.2314 75.4497
CA 14.3127 -5.12389 95.2939
CA 31.8526 -8.07419 79.3917
CA -2.21482 -1.64617 70.4528
CA 41.2206 -16.528 56.7255
CA 20.2472 -13.1555 33.3425
CA 18.4098 -9.73201 55.2612
CA -1.037 -12.5145 70.981
CA 7.00808 -28.7404 60.1544
CA 6.49203 -26.6712 67.9115
CA 15.3273 -4.56506 70.8141
CA 26.1281 -4.55515 60.7894
CA 16.5557 -7.0844 66.709
CA 12.2468 -16.457 63.9792
CA 8.03089 3.17555 1.8227
CA 16.4578 -16.7092 50.6154
CA 7.69244 -25.1135 67.7382
CA 31.3694 -8.14984 62.6467
CA 23.8158 -12.6971 56.1069
CA 21.841 -14.4171 42.0134
CA 16.5625 -5.6704 27.4403
CA 12.4915 -24.6753 73.0912
CA 13.449 -14.972 70.5572
CA 3.51787 24.8038 16.6151
CA 34.5602 -18.3011 65.2701
CA 33.6697 -15.6216 60.8535
CA 11.2873 5.233 38.4481
CA 7.53071 -28.1296 69.9736
CA 25.7318 -20.2734 55.0842
CA 18.5994 -2.4352 78.5448
CA 15.9648 6.00583 10.8813
CA 29.942 -6.81728 63.6274
CA 14.6584 7.96298 59.6046
CA 19.8034 -17.2533 69.6445
CA -2.89192 -15.4841 43.5836
