489

CA 9.88826 3.15982 12.7422
CA 14.8383 -2.82347 47.8094
CA 14.0466 -4.19611 79.5262
CA 16.221 -23.5767 38.1837
CA 13.1185 -3.5107 22.5001
CA 20.7465 -7.97611 81.9565
CA 13.5847 -18.8417 85.6297
CA 10.4718 4.82026 55.5484
CA 19.7127 -23.1251 66.0793
CA 16.6069 -21.9397 36.5441
CA -0.202261 -2.19111 71.171
CA 10.129 -0.752584 3.00405
CA 1.3146 -18.6099 64.2128
CA 25.2753 11.9881 49.1205
CA 12.1061 16.5567 57.4778
CA 25.3259 -5.64379 68.0296
CA 6.34081 -14.8535 90.3313
CA 35.1385 -21.5764 65.8935
CA -1.61939 -0.603729 45.6435
CA 4.75428 25.2376 18.8586
CA 31.9179 -9.3536 80.9974
CA 17.1776 -8.42563 61.2953
CA -5.40992 -4.63329 63.0617
CA 2.76128 -17.2308 92.251
CA -3.94943 -14.6989 52.3625
CA 16.7528 -2.53347 17.0792
CA 27.4414 -14.8129 77.4319
CA 17.0083 -12.8094 50.431
CA 17.0363 -17.7901 60.554
CA -2.03666 -12.162 51.8888
CA 8.77536 -1.81167 80.3296
CA 6.45991 -12.3273 66.4594
CA 11.8425 -14.7742 94.939
CA 20.3993 -0.756828 75.8211
CA 5.25128 -19.977 53.1613
CA 14.8517 2.96876 58.6425
CA 21.1283 13.0346 20.5685
CA 20.3495 -17.032 86.0179
CA 21.6742 -16.6687 33.8841
CA 3.96287 -7.67511 55.1792
CA 9.52318 24.7822 54.0579
CA 20.0989 -1.95374 64.3384
CA 6.54367 -15.0772 49.1666
CA 0.40236 -7.30202 46.8486
CA 24.6735 12.7193 55.0946
CA 6.93147 -5.32145 81.8583
CA 14.7732 -16.0473 40.2348
CA 9.51214 -2.41442 39.9379
CA 4.85362 30.7598 19.3155
CA -5.9731 26.3347 16.1997
CA 35.8528 -12.7631 57.3499
CA 30.5694 -15.3727 83.155
CA 13.0153 -13.9567 53.4786
CA 5.92176 -21.7766 58.7407
CA 5.28461 20.8163 15.8925
CA 17.5715 0.0199013 25.9854
CA -5.07238 -8.62421 56.656
CA 18.7098 -4.72452 29.3823
CA 10.8281 -16.0827 56.6126
CA 8.00221 -3.51376 78.8793
CA 8.50777 -19.0335 61.7354
CA 12.8463 -5.87386 80.1982
CA 7.12158 -17.0825 66.1766
CA 19.5279 -27.3332 54.2159
CA 16.8432 -5.17267 91.1211
CA -11.1125 -14.0116 67.1611
CA 10.0101 -16.9759 70.8483
CA 16.8847 -18.1905 86.4327
CA 22.075 -5.85718 71.9375
CA 15.5315 1.18716 63.9049
CA 24.7211 -7.72177 66.4828
CA 32.3632 -9.14978 70.7376
CA 2.83107 -4.33176 51.0005
CA 13.2658 7.96055 83.157
CA 18.3123 2.07497 66.9861
CA 3.31532 0.238382 42.9564
CA 26.755 -16.4114 62.1343
CA 17.2558 12.6365 59.839
CA 10.9142 0.371195 0.350306
CA 43.6564 -21.8869 57.5419
CA 17.8308 -3.75466 45.8489
CA 15.7907 -8.26159 29.6098
CA 19.2288 -23.6667 62.3007
CA -1.71139 -9.81335 89.1823
CA 4.82681 1.24855 44.0971
CA 16.7106 -3.99324 28.3738
CA 30.422 -0.801726 77.3553
CA 16.9345 -8.8199 91.4633
CA -9.88073 -9.74635 56.9751
CA 18.469 -6.96791 53.478
CA 32.5789 -8.31967 74.7648
CA 33.0725 -10.4039 74.5716
CA 37.671 -12.3816 60.6021
CA 13.3167 -7.63228 88.4246
CA 18.238 6.71204 58.0546
CA 14.5947 -21.79 52.9196
CA 7.49528 -5.88952 34.2213
CA 12.5734 16.5809 50.764
CA 14.2869 -11.7564 65.5042
CA 25.8611 -14.1515 55.5103
CA 23.5269 7.31725 49.499
CA 9.1268 -14.7669 50.9148
CA 22.076 -12.2599 86.601
CA -5.66615 -1.06776 52.773
CA 11.2359 -4.34558 23.9235
CA 14.556 -14.5038 63.3867
CA -10.5532 -5.32718 49.1458
CA 16.3514 -3.48793 68.1204
CA 24.8193 -15.4429 66.5763
CA 13.5695 -26.0721 61.5034
CA 17.596 0.571617 19.5777
CA 14.2221 -10.2369 42.5917
CA 3.71012 -17.6624 52.9733
CA 6.88172 -12.38 58.5463
CA 20.2053 -4.08278 94.0593
CA 23.2547 -5.10956 85.8874
CA 20.2572 -7.21384 76.5342
CA 31.3242 -10.9986 59.1428
CA 27.5273 -14.4654 56.1147
CA 23.9188 -22.6964 54.2676
CA 8.29175 -11.5382 90.2096
CA 18.9191 3.40274 92.5522
CA 15.8651 20.8447 52.8082
CA 5.88902 -6.82277 65.0847
CA -7.96645 2.16097 71.3932
CA 9.08631 9.80483 55.4095
CA 13.1504 -16.0164 57.1102
CA 12.9056 3.31321 51.9844
CA 0.805548 -8.82509 93.3284
CA 8.52494 -2.35474 69.8847
CA 5.74805 -2.38134 61.7534
CA 9.32135 5.11236 3.33469
CA 15.0504 -13.4856 65.592
CA 36.3365 -3.61215 75.7163
CA 5.90252 -20.1008 62.3603
CA 10.1335 -22.9258 58.166
CA 2.98316 -18.8584 67.6467
CA 1.36785 -16.8266 95.9161
CA 8.93837 -8.19814 82.1303
CA 8.65905 -2.40102 33.7698
CA -3.69564 1.92236 53.8037
CA -10.3214 -3.88836 50.7036
CA 4.18819 2.26593 55.6645
CA 6.62982 25.0783 47.4525
CA 29.4835 -16.2753 55.8762
CA 15.1441 6.76215 5.36164
CA 5.47859 -11.4953 79.3022
CA 11.6634 6.54368 55.6608
CA 9.59474 -0.747718 69.3937
CA 8.61667 -17.5604 51.4801
CA -0.0738093 -8.78167 51.1989
CA 19.1347 -0.492915 96.1948
CA 17.3111 -28.092 58.7186
CA 18.4727 -18.6899 72.667
CA 3.81088 -6.67734 83.2733
CA 21.6129 -6.57143 64.1784
CA 11.4085 -11.4361 41.5957
CA 22.559 15.7317 16.9236
CA 15.0872 -20.2622 39.7157
CA 10.3032 -6.27854 1.62669
CA 33.0319 -9.2783 57.5695
CA 6.16931 -7.17658 60.4369
CA 3.22264 -6.38222 65.8696
CA 0.51353 -17.975 61.2291
CA 20.629 -1.87222 15.9175
CA -6.88001 6.56257 68.7713
CA 16.3892 -2.84724 1.42954
CA 22.8453 -19.006 46.3656
CA 34.2933 -12.6134 82.2381
CA 19.8751 1.32995 24.701
CA 18.0031 -26.0196 53.3878
CA 15.6492 3.26417 20.523
CA -3.32773 -8.40877 70.6569
CA 2.21525 -13.6275 93.4083
CA 10.3885 -7.20279 70.9896
CA 3.02654 -2.39674 69.6774
CA 9.85188 -12.2665 61.1642
CA 16.2673 10.5636 58.4188
CA 25.8089 -15.6109 40.6395
CA 16.8918 -14.4827 34.6417
CA 17.5382 2.18386 17.005
CA 27.7011 -12.5241 60.2319
CA 25.5381 -16.6442 43.975
CA 10.8377 -13.2612 97.079
CA 23.8396 -5.07793 69.0744
CA 2.51616 -20.112 68.8653
CA 3.68351 -9.61157 68.6315
CA 21.9361 -18.9937 90.7275
CA 12.2497 -24.1177 75.5523
CA 20.4227 12.0901 16.081
CA 23.1051 -32.0081 64.2374
CA -6.62942 -11.0681 70.9915
CA 6.74612 -18.9794 48.1355
CA 25.4863 -13.6442 45.4419
CA -14.0997 -12.8311 67.237
CA 34.8532 -14.8361 73.0713
CA 16.2295 -17.808 77.546
CA 15.9849 -16.5114 34.7095
CA 20.0785 -21.7626 72.2859
CA -9.22651 25.2535 16.0747
CA 11.2454 -2.89177 21.7749
CA 15.6761 -13.1729 45.4234
CA 12.7484 -5.80343 52.2102
CA 9.81178 -5.44976 81.3819
CA 2.53693 -11.6809 64.7283
CA 10.5379 -12.8339 40.2489
CA 32.8039 -23.2673 63.0038
CA 14.8446 -18.7431 61.9829
CA 12.2273 -5.6105 69.8462
CA 12.1649 -14.3705 41.1091
CA -7.32642 -0.197589 70.0955
CA 20.6837 -6.35323 94.0112
CA 11.1904 -4.60605 42.2585
CA 14.8253 -14.8174 68.9673
CA 19.1153 -4.43694 86.2189
CA 0.497109 -19.2402 71.4978
CA 15.0887 -14.7786 42.3047
CA 22.9455 -19.2531 56.1038
CA 1.03132 30.5557 16.9794
CA 20.6937 -5.47317 85.4155
CA 14.5193 -10.8481 60.8126
CA -1.03462 -20.1265 70.038
CA 8.82478 -11.753 87.8876
CA 16.9655 -29.4862 60.255
CA -5.09493 5.70239 69.4174
CA -6.99969 5.79415 73.5206
CA 4.64964 -5.26697 36.1127
CA 38.9617 -21.682 61.6829
CA 18.8199 -30.9064 61.9571
CA -9.82797 -12.3997 55.0597
CA 9.79422 1.74374 82.0569
CA 11.9638 -11.7075 68.7056
CA 15.6479 -30.1768 61.4808
CA -6.43956 -5.58265 56.7502
CA -6.02129 -3.44357 50.9312
CA 26.902 -12.2107 43.7361
CA 6.75572 -7.55183 86.9399
CA 15.0583 -4.33426 43.6624
CA 7.13431 -10.4496 61.559
CA 0.994053 -18.3478 52.9832
CA 5.89891 -15.0121 88.3209
CA -1.90369 -16.2263 47.1507
CA -5.59785 -8.49945 50.5744
CA 12.1153 -12.1977 79.1965
CA -4.42263 -9.45523 60.2075
CA 24.0393 -13.6716 42.2658
CA 13.8615 0.133802 79.1534
CA 0.373472 2.42649 53.7104
CA 16.2347 -2.37454 77.9466
CA 47.1771 -15.8226 61.1125
CA 4.94933 -3.41782 39.3172
CA -2.00222 -12.0044 77.0224
CA 18.1942 -1.59228 65.3906
CA 9.50996 7.31043 54.4143
CA 21.523 5.73325 91.8247
CA 15.5601 -28.6035 52.7096
CA 10.8673 6.90857 58.9
CA 0.309476 -22.1454 52.9851
CA -3.69222 28.3032 18.3473
CA 36.3448 -8.33049 72.8199
CA 37.123 -11.087 57.7684
CA 2.64421 -18.0319 43.4829
CA 7.75221 -6.44108 38.7169
CA 15.9813 -26.2741 64.015
CA 14.0578 -2.92908 64.9365
CA 1.22072 -3.12219 71.8574
CA 19.2255 -25.7371 61.0788
CA 6.47053 -26.9743 60.6173
CA 3.73881 -22.7332 69.1351
CA 11.7702 6.84841 81.8922
CA 35.7372 -17.4737 64.1684
CA 12.3844 -11.517 81.7507
CA 30.4716 -8.0503 60.8695
CA 10.834 -27.5031 65.4379
CA 32.399 -12.3559 61.8636
CA 17.7975 -15.4336 38.6353
CA -2.36283 -3.62516 94.8212
CA -5.89977 28.0414 15.2313
CA 14.7457 -0.902644 24.8623
CA -3.79325 -15.9941 69.5737
CA 5.1295 -2.54037 41.3237
CA 13.9498 9.79542 13.0641
CA -2.2917 -4.74917 62.0159
CA 2.51195 -10.3366 96.7859
CA 21.1268 -12.7025 57.4547
CA -0.65549 -5.90686 88.0455
CA 20.3765 11.7362 54.6043
CA 9.31756 14.8506 19.1768
CA 23.087 -14.4667 64.4402
CA 8.60621 -12.3998 91.8378
CA 24.2518 -30.0631 71.2632
CA 12.9261 1.45188 33.9892
CA 22.1348 -5.57686 68.3849
CA 41.0094 -13.6626 54.2528
CA 2.06355 -15.3759 83.8817
CA 18.236 -17.1049 79.7521
CA 6.40315 -15.7135 57.2985
CA 17.8907 -21.3691 37.8708
CA 28.4171 -16.9475 76.6633
CA 6.53505 -10.0476 78.1382
CA 30.7297 -24.7354 63.3115
CA 22.8252 -17.1683 77.0784
CA 16.2815 7.03157 3.09951
CA -4.49217 -6.87235 49.5362
CA 22.3328 -9.0325 59.7827
CA 15.3282 -13.2738 78.547
CA 20.5299 -15.9329 48.8407
CA 18.084 -15.84 68.2746
CA 23.3875 -11.2526 84.3472
CA 30.9945 -14.7654 81.1168
CA 24.7305 10.9696 52.3443
CA 33.8076 -4.86154 80.1729
CA 24.5441 -10.4424 54.0712
CA 13.3458 3.37333 7.0019
CA 11.3914 -16.3762 64.3488
CA 30.4557 0.564439 75.2788
CA 11.0514 11.5787 82.7852
CA 16.3711 -12.5512 67.9421
CA 18.8497 -18.8224 81.6588
CA -2.65843 -16.0469 73.0797
CA 3.87015 19.5107 17.9781
CA 8.44469 27.0089 48.8841
CA 10.3838 -12.2836 59.3096
CA -1.62519 -5.34135 63.8575
CA 44.3714 -16.4863 60.6938
CA -6.9346 9.80386 74.282
CA 22.9971 -8.68911 85.3394
CA 37.9025 -3.03387 74.3167
CA 18.3532 -3.83642 74.7186
CA 23.6857 -5.79133 92.4238
CA 11.6501 -20.9568 56.9856
CA -10.5005 7.43028 74.2236
CA 19.4213 0.122331 81.6345
CA -3.80143 -5.76295 62.8715
CA 33.884 -7.11477 63.7405
CA 25.4873 -14.9402 42.9808
CA 7.81592 14.4586 57.3348
CA 19.2572 7.11378 14.262
CA 19.0211 -25.5565 50.101
CA 10.6913 0.355829 24.2729
CA -0.184467 -11.2334 79.3047
CA 19.6488 2.65311 18.4754
CA 10.0765 -8.39534 24.0586
CA 4.14715 -21.3279 44.0557
CA 9.3738 7.56691 7.64959
CA 29.3084 -8.21045 55.5152
CA 22.5023 -2.51748 24.1915
CA 3.73269 -10.1836 48.7768
CA 23.1071 -14.023 60.3364
CA 8.79493 -11.2754 96.1694
CA 2.08221 -0.781821 45.4808
CA 4.01192 -5.10416 39.693
CA 9.81528 3.81571 72.8533
CA 15.51 -17.9958 79.733
CA 3.18158 28.1451 17.7567
CA -0.740693 -18.0244 68.5578
CA 30.8974 -8.23861 57.9401
CA 12.7753 -18.3446 34.8762
CA 14.044 -4.04716 51.4331
CA 10.7148 -21.0894 50.4976
CA -0.0775192 -2.73325 44.7051
CA 30.8203 3.53056 72.5171
CA 3.82856 -13.0226 40.0434
CA 11.2479 -12.217 85.4076
CA 2.57391 -4.79177 47.1859
CA -3.11757 10.5882 70.8578
CA 20.7451 -24.8709 75.1183
CA 16.8197 -21.3375 83.1412
CA 5.32481 16.9342 17.2384
CA 17.2193 6.56988 17.5865
CA 19.2592 -7.0833 67.43
CA 5.71105 -11.5159 68.3276
CA 15.2577 -5.04383 29.0865
CA 15.9477 -19.4258 38.3512
CA 11.155 -16.4039 67.0321
CA 2.36486 -29.0462 67.3889
CA 24.5509 -29.5171 69.0466
CA 3.43334 -10.9717 81.1364
CA 23.5802 -11.561 66.1464
CA 16.688 5.01611 18.4144
CA 16.192 -22.0102 72.0724
CA 13.3507 -20.1003 75.0366
CA 15.2333 -11.7527 56.032
CA 30.2356 -10.6789 80.1511
CA 10.7989 -25.8134 69.7497
CA 22.1143 -18.0625 74.8478
CA 4.58848 -16.1251 79.5931
CA 34.0456 -10.0505 72.2017
CA 14.2356 -4.3732 -0.404737
CA 15.7169 -23.6593 52.4822
CA 7.58475 17.7617 17.4378
CA 17.9272 -27.427 52.2132
CA 9.82151 -24.3736 73.9932
CA -14.0264 -11.1062 56.6224
CA 28.4008 -6.47782 78.216
CA 40.5665 -23.6478 56.6007
CA 12.6694 1.06354 2.11349
CA 28.8763 -11.5778 74.9335
CA 12.7114 -20.0925 70.1489
CA 14.6106 4.38909 52.7589
CA -0.893651 -10.5513 54.0557
CA 18.2118 -4.49715 92.2128
CA 38.2139 -13.2555 56.5965
CA 21.139 -25.5839 61.7893
CA 10.2494 -9.51587 55.4507
CA 11.0934 20.3296 53.6259
CA 8.13906 -2.57804 29.4428
CA 13.382 -11.3852 28.7307
CA 11.7097 -4.56011 53.5041
CA 3.96259 -22.1553 56.2482
CA 14.0273 -2.06219 79.5144
CA 5.19503 -4.92991 44.8031
CA 36.3222 -11.9794 55.0788
CA 5.56873 -24.0199 62.4575
CA 12.5839 -26.5059 73.2999
CA 27.5478 -30.7895 64.8235
CA 15.9032 -11.8268 61.5617
CA 11.2758 -1.19908 80.8635
CA 20.7389 -15.3445 68.4817
CA 24.6817 -17.7039 63.7075
CA 36.336 -3.41117 79.0527
CA -3.3135 -7.4157 94.0501
CA 35.8707 -5.50318 70.1826
CA 0.333628 25.0045 17.9575
CA 20.7533 -1.08654 -1.68171
CA -7.82246 3.93602 70.6507
CA 8.8332 18.6462 15.1858
CA 18.8204 -9.01553 58.8391
CA 19.6639 -8.88025 76.0357
CA 9.09651 -1.47805 67.2307
CA 23.268 11.5192 57.0145
CA 12.3572 -11.3188 52.9687
CA 5.86465 26.0748 17.1554
CA 16.5047 -2.43219 53.099
CA 35.266 -20.1207 63.9436
CA 13.0036 11.1763 18.1327
CA 7.8437 -13.0705 37.8716
CA 18.5791 -15.8518 49.2517
CA 22.0702 12.6293 51.687
CA 29.5283 0.321929 80.2218
CA 15.3062 -0.283542 45.6453
CA -1.75947 27.634 16.3389
CA -8.83359 -14.3381 70.0507
CA 23.7177 -13.6094 83.7666
CA 20.5303 -18.1945 47.6
CA 24.1477 -10.2649 75.4074
CA -11.8863 -12.4255 64.941
CA 9.45095 3.05646 10.5201
CA 8.76543 16.1666 51.2428
CA 18.5618 -19.0604 47.7648
CA 11.7098 -5.74242 32.5353
CA 41.886 -14.8405 56.358
CA 36.4862 -18.9201 70.7566
CA 27.6152 -15.2726 80.818
CA -7.78224 1.04599 65.5761
CA 14.3127 -5.12389 95.2939
CA 1.30885 0.667584 54.657
CA -2.21482 -1.64617 70.4528
CA 35.4749 -1.65518 74.5032
CA 20.2472 -13.1555 33.3425
CA 26.8745 -3.39999 75.266
CA -1.037 -12.5145 70.981
CA 7.00808 -28.7404 60.1544
CA 6.49203 -26.6712 67.9115
CA 24.6216 -17.4961 89.1673
CA 26.1281 -4.55515 60.7894
CA 8.52569 -22.1335 63.0132
CA 9.17818 -3.64431 31.251
CA 8.03089 3.17555 1.8227
CA 16.4578 -16.7092 50.6154
CA -3.04485 -6.20978 60.6829
CA 31.3694 -8.14984 62.6467
CA -4.58947 1.83723 71.8688
CA 21.841 -14.4171 42.0134
CA 5.84905 -2.55067 33.0245
CA 12.4915 -24.6753 73.0912
CA -4.48074 -3.45662 97.3269
CA 3.51787 24.8038 16.6151
CA 34.5602 -18.3011 65.2701
CA -8.496 28.2153 16.651
CA 29.9431 -10.329 58.0736
CA 36.5204 -20.9983 62.2425
CA 25.7318 -20.2734 55.0842
CA 18.5994 -2.4352 78.5448
CA 15.9648 6.00583 10.8813
CA 29.942 -6.81728 63.6274
CA 21.4315 -3.9246 76.1045
CA 11.4085 -4.19237 55.3283
CA -2.89192 -15.4841 43.5836
