489

CA 0.373041 4.15771 58.4127
CA 17.423 0.0707153 21.1067
CA 0.326207 29.5704 17.8289
CA 9.24182 21.5261 17.0952
CA 18.4564 -20.6612 86.4867
CA 33.9165 -4.29006 56.0724
CA 16.6442 -3.64117 81.0366
CA 14.8332 -9.66343 80.1666
CA 22.4974 -14.6561 58.3713
CA 27.3053 -3.12962 65.5139
CA 27.4721 -18.1267 62.2375
CA 22.2532 -24.0105 71.06
CA 11.9861 1.61259 4.64128
CA 13.3741 -1.74226 62.3681
CA 22.3729 -30.0289 56.6935
CA 11.6918 -7.12164 96.4909
CA 17.2991 -8.82712 54.2387
CA 20.0295 5.41972 16.18
CA 35.959 -11.6336 78.9808
CA 5.20839 33.072 18.6738
CA 19.1222 -1.10833 7.84429
CA 12.6629 -14.4918 46.1104
CA 8.92464 -11.614 92.7055
CA 30.5963 -16.184 53.5985
CA -3.94943 -14.6989 52.3625
CA 16.7528 -2.53347 17.0792
CA 25.9228 -5.89586 35.8114
CA 26.8522 -5.74683 31.0652
CA 42.4495 -19.9735 67.1848
CA 26.8014 -12.2764 85.1067
CA 18.7745 -3.62768 76.7581
CA 2.52791 7.50889 57.3838
CA 22.4304 2.15819 2.20675
CA 17.3977 4.15216 63.7865
CA 11.6625 -12.2745 54.4988
CA 8.12295 34.4289 15.5445
CA 24.0538 -2.14101 51.0161
CA 6.13616 -6.64529 82.375
CA 19.9839 -27.7657 55.9158
CA 2.91916 -5.1302 52.638
CA 4.24359 -18.748 72.9583
CA 17.9213 -16.2377 86.4537
CA 15.7822 -15.8037 33.9944
CA 2.1927 -9.88009 93.993
CA 21.3211 -1.37178 5.87838
CA 29.8907 -15.5254 76.0189
CA 27.6969 -16.0752 38.7624
CA 16.1759 -26.8995 61.1843
CA 22.4404 8.83659 57.7072
CA 5.38509 31.1403 14.9667
CA -7.3351 -8.13051 94.8262
CA 18.3297 -15.264 96.8157
CA 0.3129 -14.4723 52.0731
CA 9.2453 1.87867 75.5325
CA 5.28461 20.8163 15.8925
CA 25.683 -6.11422 46.5897
CA 31.9871 -18.6412 50.3494
CA 1.50529 6.03463 57.8797
CA 10.3661 -21.8429 59.5575
CA 2.01167 1.75613 61.3192
CA 17.2092 10.923 57.4675
CA 22.5862 -7.88953 89.6235
CA 29.8059 -15.0469 47.6363
CA 17.7425 -14.3 44.7355
CA 29.4793 -8.82354 31.6079
CA 11.1161 -4.74276 60.0734
CA 31.6783 -14.0467 69.5897
CA 11.0148 -8.36431 76.3044
CA 24.9192 -24.799 54.1703
CA 10.5562 -0.880494 66.5327
CA 29.1491 -19.914 88.0419
CA 22.1362 -25.4549 42.7943
CA 18.7516 -1.89185 94.194
CA 10.4507 -23.2752 54.0984
CA 14.5864 6.59225 15.0071
CA -13.1092 -17.0612 57.2726
CA 3.37618 -12.3097 89.9912
CA 13.3039 -13.3949 4.14951
CA 12.6929 -7.3699 4.76637
CA 19.9292 -20.8902 73.595
CA 21.5461 -20.1969 62.3151
CA 11.9548 -23.7021 49.7942
CA 17.3041 -13.95 95.1968
CA 34.0013 -8.28794 52.2239
CA 6.8912 -11.0274 91.5451
CA 30.6884 -8.01218 56.1036
CA 19.0349 11.2039 64.3196
CA 15.3502 -11.0887 53.4016
CA 25.6631 -10.1343 46.7925
CA 22.9386 -4.26839 61.2007
CA -8.93377 28.7947 16.1942
CA 12.9199 -15.5949 74.4764
CA 0.719446 -0.516496 59.2176
CA 16.751 -5.85162 97.4394
CA 23.1426 4.3454 56.6581
CA 7.99347 -16.0236 45.1991
CA 15.4885 -12.7358 76.1467
CA 42.9451 -13.5531 57.8496
CA 32.2408 -9.03607 59.1076
CA 9.5862 -23.0682 38.7549
CA 13.4241 5.18233 52.8494
CA 11.3065 -1.15286 42.6143
CA 2.54857 1.84915 52.2308
CA 17.3906 3.21971 57.4592
CA 36.7413 -5.26166 71.0018
CA 22.8062 -2.75357 81.1727
CA 22.3764 -21.7481 52.3091
CA 6.11919 -4.14551 55.9398
CA 19.8383 -10.0045 90.7062
CA 8.52724 0.119765 39.7389
CA 10.0447 -13.0564 78.341
CA -1.74703 -1.70687 52.7303
CA 7.03801 -8.78161 74.6343
CA 27.7031 -15.5381 44.7053
CA 17.1987 7.41733 64.9095
CA 20.2751 -25.5466 72.8419
CA 21.6513 -12.6502 64.386
CA 24.2156 -12.2624 72.8777
CA -6.17668 32.0313 16.3144
CA 28.201 -22.9689 43.1349
CA 17.6672 7.60008 59.8412
CA 10.9224 -16.7681 61.3779
CA 14.6726 -29.2149 47.9885
CA 25.8394 -13.2645 80.3789
CA 11.98 -24.3392 68.7081
CA 17.4173 -5.3174 25.0874
CA 47.8424 -11.6185 57.5309
CA 22.3199 -0.61469 46.9916
CA 36.7597 -11.6019 52.5635
CA 11.9458 2.13165 82.4798
CA 8.37384 -3.43254 41.3746
CA 15.1081 3.01308 42.142
CA 15.4398 0.538994 0.166778
CA 19.987 -7.17946 53.4822
CA 16.2383 -18.0369 75.4477
CA 17.4381 -18.1845 40.6124
CA 4.73229 -17.4462 91.7302
CA -6.65896 26.4245 17.9495
CA 7.99359 -5.10087 47.5251
CA 17.027 -4.40388 34.6545
CA 21.9179 -17.0274 36.2339
CA 15.9062 -0.6857 87.0769
CA 27.1075 -9.0318 34.9114
CA 22.6731 -24.8376 83.2669
CA 6.27896 28.7141 17.962
CA 30.0222 -25.1628 60.0692
CA 23.3555 2.59276 73.0028
CA 12.5018 9.60175 55.4974
CA 13.3186 -9.79264 54.8268
CA 14.019 -10.7114 39.3883
CA 28.4412 -17.2669 34.2411
CA 18.1497 -6.49361 26.935
CA -15.141 30.4359 17.3135
CA 18.4727 -18.6899 72.667
CA 31.4393 -21.2756 44.7168
CA 30.1319 -15.8352 84.0559
CA 25.1406 -4.52631 30.5266
CA 24.5996 -9.54734 72.4607
CA 2.10644 0.402143 62.9571
CA 10.3032 -6.27854 1.62669
CA 39.3971 -15.7864 56.4864
CA 0.506148 0.352484 66.8472
CA 20.9745 -6.90337 84.628
CA 15.7689 0.560835 22.9625
CA 24.6288 -1.9804 73.3809
CA 30.4673 -6.95885 84.5131
CA 16.5237 1.22093 17.6712
CA 19.9493 -12.8552 72.885
CA 8.98665 -4.97931 46.0032
CA 27.8375 -11.8593 39.2423
CA 20.0941 -16.5829 59.5845
CA 19.1209 -10.3557 34.6955
CA 17.8824 -15.437 53.5369
CA 31.1842 -3.66095 84.667
CA 11.6889 -10.8719 101.541
CA 30.8182 -17.4935 65.8459
CA -3.24632 -16.9054 73.0795
CA 31.077 -13.4689 52.5891
CA 37.5057 -9.37988 51.3241
CA 7.18518 -13.5374 55.1264
CA 13.3617 -28.0525 60.3017
CA 6.99684 -19.4291 66.8967
CA -0.509687 -18.2558 73.4256
CA 35.5677 -2.25632 62.4151
CA 21.1302 -22.1764 47.1797
CA 10.0719 -12.9496 51.1268
CA 8.73652 -19.5758 64.8391
CA 9.26403 -20.4584 70.75
CA 24.2365 -7.6005 66.8459
CA 5.95651 -0.163991 71.2988
CA 21.8914 -30.1648 59.3114
CA 32.7793 -21.9394 54.0113
CA 13.0198 -12.5868 57.2411
CA 11.3524 -15.2402 68.1532
CA 13.2154 -15.3597 42.9431
CA 21.2721 -4.22772 49.7426
CA 22.4147 -4.16073 58.5032
CA -2.53155 -18.908 72.1279
CA 14.8947 -19.4334 84.6032
CA -9.22651 25.2535 16.0747
CA 13.7274 -2.42663 57.408
CA 13.592 -19.5602 91.4248
CA 27.7072 -17.2618 65.7109
CA 12.6919 -16.3149 95.1742
CA 29.3626 -15.0075 68.0064
CA 5.04903 -5.34433 79.3144
CA 20.3151 -6.53308 80.7204
CA 17.4121 -5.70256 43.879
CA 20.2025 -15.3517 61.6358
CA 18.213 1.30852 6.43239
CA 27.7655 -17.9679 73.2572
CA 25.7703 -10.6212 69.3543
CA 10.1859 25.4129 19.7511
CA 9.19932 0.0741428 42.8608
CA 16.5166 -9.16138 73.1806
CA 18.59 -14.2087 72.7682
CA 40.7688 -9.94845 59.1407
CA 8.71847 6.45857 81.77
CA -11.0773 27.9047 16.517
CA 22.9928 2.6 9.95867
CA 26.4877 1.78519 65.3362
CA 18.6565 -20.408 76.2134
CA 46.2634 -20.0434 65.2221
CA 11.1477 -23.9867 52.5189
CA 11.1994 -19.5956 66.1133
CA 41.5136 -2.59913 49.4761
CA 11.8466 -16.8074 34.2147
CA 16.2614 -16.513 77.5319
CA 29.9657 -18.8835 85.3223
CA 27.3227 -15.7968 66.8135
CA 11.0376 9.46547 52.5518
CA 11.9638 -11.7075 68.7056
CA 19.2245 -14.4728 92.6135
CA 27.8819 -7.1136 61.3172
CA 11.6912 -12.9042 66.7938
CA -0.178115 -19.1954 75.7866
CA 6.38197 16.9718 10.5325
CA 4.0695 -6.88185 65.0127
CA 10.9836 -11.0974 95.9604
CA 9.47493 -20.0745 38.1249
CA 27.2841 -6.95638 65.956
CA 28.8821 -18.8447 61.1375
CA 21.1119 -0.948804 39.9707
CA 17.5903 -0.0208304 26.8348
CA 8.35752 -4.57512 4.57703
CA 0.928222 27.4054 17.659
CA 11.1257 12.5004 21.7243
CA 7.99323 5.79149 57.7488
CA 14.1745 -22.1139 61.8003
CA 15.5775 -27.9784 59.8325
CA 19.5416 -12.5029 77.9749
CA 31.0411 -9.84318 56.0275
CA 27.7842 -15.7183 68.7958
CA -6.44522 25.8013 20.2872
CA -1.99626 0.817275 66.2017
CA -13.2882 30.3653 16.6063
CA 42.3242 -8.97213 59.0982
CA 25.317 -28.9233 81.8172
CA 15.982 -22.4489 49.8488
CA 15.9082 -29.9625 63.5475
CA 6.2309 16.5294 13.469
CA 11.5345 0.47322 67.6944
CA 17.3218 -1.78859 72.6115
CA 9.75789 -2.15789 38.8762
CA 16.7509 5.2279 82.6183
CA 1.94767 -1.29844 61.8088
CA 20.5249 -19.3282 76.2952
CA 9.30039 -20.3769 62.6243
CA 17.4257 -18.7997 36.0407
CA 4.0178 -13.1761 49.9025
CA 15.7946 -1.49892 31.004
CA 29.9336 -23.2288 60.8457
CA 16.6653 1.04205 66.3421
CA 29.0634 -10.4798 42.3661
CA 14.4413 6.80192 56.4509
CA 2.13601 -12.0148 92.4921
CA 22.6272 2.92133 63.0655
CA -5.89977 28.0414 15.2313
CA 14.7457 -0.902644 24.8623
CA 41.2121 -5.1338 78.3585
CA 34.1368 -11.8198 65.4297
CA -2.79004 -8.90424 93.1973
CA 33.0722 -14.1019 80.2263
CA 41.5812 -17.6144 59.1359
CA 17.7335 -12.262 62.336
CA 40.885 -4.30703 51.3164
CA 28.2774 -15.9082 57.0166
CA 17.5926 -27.5305 57.7388
CA 5.89253 -15.3226 56.1108
CA 6.1862 8.87469 52.0308
CA 3.78614 -19.9753 67.6785
CA 15.9658 -15.034 44.4461
CA 29.4867 -5.65362 73.5838
CA 17.6748 -15.6536 43.4254
CA 22.8553 -18.207 62.7062
CA 13.6304 -14.9422 49.0456
CA 10.8828 -8.81972 3.76151
CA 33.8876 -22.3614 60.5711
CA 40.2457 -6.95267 55.265
CA 10.5488 13.2713 19.4751
CA 14.8218 -22.4449 70.2723
CA 3.46121 19.9795 16.3029
CA 24.7709 -3.93037 72.5202
CA 20.6004 -8.31669 60.5238
CA 8.65645 10.2131 74.5262
CA 15.3282 -13.2738 78.547
CA 34.0913 -6.00156 63.2012
CA 10.5432 -11.5401 35.8183
CA 18.3899 -4.18197 44.4775
CA 6.78283 1.98975 57.8327
CA 39.7575 -7.74638 52.8788
CA 33.2092 -7.25666 81.8536
CA 18.6395 5.10406 59.275
CA 13.3458 3.37333 7.0019
CA -3.36041 -10.0201 94.5489
CA 39.189 -6.55192 57.0621
CA 15.2397 -20.6905 86.4576
CA 36.9714 -2.35336 75.7008
CA 25.5662 -16.3277 65.9315
CA 32.8807 -12.6526 54.8752
CA 9.84422 -13.4025 98.1132
CA 6.81681 1.95053 40.5703
CA 7.19797 -6.00336 65.1028
CA 4.48978 -10.0543 54.3839
CA 23.1637 3.28556 68.5216
CA 13.548 -10.3238 77.892
CA 26.0389 -6.17949 70.321
CA 12.899 -9.00095 2.94133
CA 31.6931 -10.2773 31.7361
CA 7.15898 -8.7995 6.00936
CA 34.03 -9.48206 84.5596
CA 20.6073 -2.06453 37.6148
CA 4.54035 -13.1814 53.2905
CA 3.85963 31.3337 16.4232
CA 2.43352 -13.8595 92.1916
CA 19.7137 -7.48729 86.5042
CA 26.9802 -9.35176 43.2388
CA 19.1494 -6.91955 60.2576
CA -3.48173 31.8695 16.2426
CA 25.4393 -11.0195 66.5938
CA -6.67623 36.3742 18.0333
CA -3.31279 -4.83743 69.5
CA 8.91655 11.0382 81.1785
CA 16.5166 -0.211882 33.4312
CA 14.4245 -3.6678 46.5382
CA 18.2726 -6.03515 49.2208
CA 13.7025 -9.50002 -1.74523
CA 27.1946 -17.9646 40.5018
CA 36.7876 -8.93016 74.2914
CA 33.5352 -17.3033 47.6712
CA 8.14108 -1.70906 81.4397
CA 21.8545 1.71042 55.6262
CA 20.5961 -0.166506 66.4861
CA 2.36334 -2.54655 51.7375
CA 3.18158 28.1451 17.7567
CA 14.0784 -1.29069 26.6909
CA 23.4862 -8.92914 85.4491
CA 28.6746 -9.87589 37.5322
CA 15.4377 -10.5269 63.4944
CA 33.3417 -8.38048 74.0679
CA 25.6131 -13.9299 73.4307
CA 46.7672 -19.4925 60.4168
CA 29.5071 -16.3451 82.3299
CA 10.715 -24.4619 46.0872
CA 2.19148 24.9291 18.3972
CA 13.5528 -4.48901 84.7619
CA 19.3945 6.90671 20.1662
CA 5.71928 -17.753 68.8916
CA 5.32481 16.9342 17.2384
CA 29.1939 4.45866 64.1664
CA 2.95753 7.63284 51.2178
CA 35.1642 -8.68455 79.7212
CA 14.1068 0.291806 21.573
CA 2.15727 -16.8537 53.1291
CA 32.1367 -19.5363 58.8914
CA 22.3541 -2.0342 76.883
CA 2.50949 -15.9132 71.6284
CA 9.54611 -7.09697 63.8468
CA 19.603 7.22097 54.6559
CA 34.7003 -4.69282 76.4745
CA 12.9214 -6.36016 55.9771
CA 24.4005 -16.4492 64.0186
CA -5.8569 -11.2426 55.4553
CA 6.05415 -5.63978 72.1854
CA 5.02058 26.4131 17.8199
CA 13.6128 -26.0247 49.5148
CA 23.2218 -18.4452 72.5002
CA 35.0132 -5.06416 58.7415
CA 14.2356 -4.3732 -0.404737
CA 26.271 -17.2695 84.0738
CA 7.58475 17.7617 17.4378
CA 17.5202 -11.7059 57.2362
CA -9.72507 -18.3816 54.287
CA 20.0459 -30.7783 60.5872
CA 47.9536 -17.8234 60.5807
CA 38.6611 -17.713 60.8287
CA 20.2026 -15.3256 32.8748
CA 18.2343 -3.38578 59.0138
CA 32.0083 0.842457 85.5932
CA 21.2154 -18.4094 41.9396
CA 20.2866 -14.9426 36.1644
CA 12.0298 -13.8567 8.94522
CA 19.5228 4.09338 11.8574
CA 2.83257 -4.69518 58.739
CA 9.5573 10.3873 23.9454
CA 20.2585 -20.3079 84.2559
CA 31.0257 -3.18803 62.1487
CA 32.2587 -4.90723 83.6714
CA 14.3933 -25.2814 55.1591
CA 31.0864 -20.1217 66.4215
CA 5.06463 13.9404 21.204
CA 20.2008 -16.2475 40.704
CA 25.0236 -10.3093 42.4027
CA 47.455 -10.118 51.1804
CA 20.2457 -9.46366 39.2931
CA 32.7649 -11.0769 78.1637
CA 20.8754 -26.9462 60.7965
CA 15.2012 -9.59822 56.9608
CA 11.923 -21.3005 65.7373
CA 27.4863 -19.5035 53.6344
CA 15.5687 -10.7186 76.7057
CA 16.4085 -3.86222 99.4619
CA 15.6386 4.11768 46.6094
CA 21.7695 -17.2294 49.7642
CA 20.7533 -1.08654 -1.68171
CA 18.1761 -14.4601 70.5294
CA 12.0636 -14.0483 54.9183
CA 21.1173 -32.2284 57.7789
CA 17.5701 3.22396 53.303
CA 28.5118 -7.54296 33.5794
CA 26.6689 -14.6449 85.7142
CA 18.4909 -5.7653 37.6822
CA 12.1776 4.27097 57.0991
CA 12.2294 -8.37848 55.9993
CA 47.2201 -22.2889 60.0065
CA 13.0036 11.1763 18.1327
CA 24.7518 -8.4405 44.466
CA 19.4255 -3.52334 4.79403
CA 12.5427 -4.82982 46.5564
CA 16.6671 -23.4062 34.8201
CA 7.37431 -7.91209 35.5554
CA -1.75947 27.634 16.3389
CA 10.4718 -8.79111 51.7407
CA 13.6676 -11.338 50.7181
CA 20.5303 -18.1945 47.6
CA 25.6903 -6.76287 75.1848
CA 25.3848 -3.2169 62.6556
CA 6.86337 -13.833 93.1713
CA 15.3837 -6.16621 28.4011
CA 21.9519 -16.3697 65.6848
CA 13.5144 -20.7532 50.9131
CA 39.5772 -11.0191 78.8693
CA 16.3196 -19.1345 88.6173
CA -2.18602 -1.05903 67.5435
CA 11.3875 -22.1957 47.5712
CA 12.3085 -7.97247 34.413
CA 12.8328 -1.75704 84.3597
CA 34.3034 -7.16421 68.9914
CA 13.3313 11.1781 84.3192
CA 10.4402 -17.3029 48.2994
CA 46.619 -8.39825 56.5445
CA -16.8164 28.9849 15.3615
CA 16.7375 -4.5131 3.90169
CA 1.3542 -18.7443 48.269
CA 20.8113 -23.0903 72.2362
CA 26.6889 -2.29474 36.2343
CA 7.29155 -4.03701 79.6608
CA 16.2813 1.20735 84.81
CA 18.3373 -3.50432 78.514
CA 11.9351 -3.69675 52.1715
CA 16.2834 -6.13021 48.3934
CA 10.6694 8.40257 83.1142
CA 7.6569 -12.4391 101.389
CA 13.6953 -5.88852 63.2481
CA 19.6142 -23.4771 52.0113
CA 30.7058 -19.594 56.0157
CA 10.2825 -3.21741 50.6645
CA 4.57559 17.2022 21.4142
CA 23.7694 -22.0623 72.9615
CA 28.1213 -23.0489 52.7215
CA 2.77828 1.60082 47.0115
CA 16.3612 -25.8421 58.6671
CA 19.3804 -2.18513 42.2546
CA 13.2526 -10.1761 35.4465
CA 8.11504 5.25819 75.0533
CA 21.8088 -23.2807 43.0461
CA 18.246 -22.5921 73.1432
CA 19.476 -18.3072 83.8585
CA -6.62041 -15.7556 56.073
