489

CA 20.9041 -27.7338 52.6077
CA -10.8944 -2.76625 86.8721
CA -24.6816 7.7523 72.5077
CA 10.7901 -3.38463 44.6406
CA 1.33831 -7.07703 44.7724
CA -19.3606 6.5628 72.9779
CA -2.82311 -1.62341 48.0024
CA 2.23197 12.2658 58.3822
CA -6.22846 31.0478 47.3285
CA 18.373 0.950445 45.4597
CA 4.33939 5.74217 70.2777
CA 11.3431 17.6413 30.6491
CA 11.3673 -4.22779 69.2841
CA 19.2668 -19.372 49.6836
CA 10.288 13.9965 67.0805
CA 31.5363 -31.6233 50.843
CA 15.893 -10.8227 45.9815
CA -12.1284 26.2301 70.7328
CA 24.6383 -11.1682 47.2183
CA 4.36838 5.08345 77.5467
CA 11.2551 12.5129 21.0731
CA 34.4487 -32.1864 51.1363
CA 7.08728 1.07739 87.4339
CA 6.21859 0.950115 51.4772
CA 2.67256 -16.0575 41.4984
CA 4.3338 5.40396 56.7124
CA 24.7232 -2.78495 84.6815
CA 5.96967 17.8969 39.3168
CA 0.45548 14.341 29.9502
CA -10.6189 26.6277 63.9223
CA 7.00271 16.8967 73.4284
CA 4.27278 -13.4373 45.1382
CA -2.31705 29.6022 58.8428
CA 38.4611 -29.8501 52.4774
CA -0.651828 -1.41409 48.5287
CA 1.31775 3.79673 52.5554
CA 25.1561 -19.5977 53.7047
CA 3.91201 -5.09454 76.6309
CA 23.1739 -3.27629 88.0396
CA -8.22555 -3.85988 43.777
CA 6.15058 11.0806 50.6969
CA -3.08975 -9.41353 48.3801
CA -19.2907 9.87297 72.9814
CA 2.32836 -17.6689 46.9746
CA -10.7672 -6.35634 81.3911
CA 13.0861 3.83676 51.0031
CA 18.3446 -4.00968 70.085
CA 25.8261 -7.11256 49.1582
CA 1.06014 -9.99092 43.5171
CA 4.39605 -8.71818 45.9975
CA 13.589 -5.23302 52.1134
CA 31.056 -34.8322 51.7537
CA 11.4036 8.5299 53.531
CA -9.1729 -28.5341 54.2119
CA 24.7026 -10.585 53.1192
CA 9.72501 18.4268 53.093
CA 11.4432 4.22324 20.3485
CA -1.67269 12.3495 74.9245
CA -1.28862 16.697 27.2774
CA 11.6365 12.8206 70.0382
CA 9.03622 3.22586 69.8874
CA 6.83257 3.55557 38.4236
CA 22.0616 -27.0817 54.3913
CA 36.5174 -16.3439 54.0458
CA 8.55758 16.284 32.0595
CA -7.90774 6.05729 45.9569
CA 25.3747 -18.6051 45.5389
CA 18.0089 -2.14776 45.1715
CA 22.4804 -6.88052 43.9611
CA -4.64112 -9.3088 49.3169
CA 19.7731 0.398013 75.9989
CA 4.92847 8.69486 58.8498
CA 11.5911 5.16565 52.7462
CA 7.58295 9.92408 37.297
CA 5.03687 6.0742 83.2997
CA 2.70982 0.582496 55.0149
CA 8.38431 -27.7252 73.2588
CA 4.74145 14.2437 73.0991
CA -14.3608 -18.4658 41.7073
CA -35.1531 -0.69994 64.1188
CA 25.501 -10.0152 50.3566
CA 11.0335 7.43668 68.2394
CA 11.7766 -0.909395 50.8568
CA 6.23977 8.0018 81.8607
CA 25.6693 0.270436 82.3185
CA -35.0846 7.25425 64.2947
CA 31.4794 6.35101 42.8585
CA 11.3441 14.9766 74.751
CA 27.5171 7.60581 36.6019
CA -3.04806 8.0218 44.4359
CA 16.5709 -4.30196 46.0766
CA 10.721 4.14977 69.2908
CA 35.5843 -13.7612 47.2097
CA 31.2918 -12.5798 46.1664
CA 13.7388 -10.6293 38.4316
CA 35.1413 -31.9658 53.6534
CA -1.40203 -37.9406 51.5524
CA -8.07258 24.1833 45.2049
CA 7.71256 11.5909 57.8741
CA -7.73013 34.0355 53.6821
CA 12.4387 3.53143 59.8104
CA 23.7761 -31.2227 47.6355
CA 5.58721 -1.7036 88.1682
CA 15.876 -0.806302 48.5298
CA 3.11616 13.5303 71.7294
CA -18.7295 -17.1863 24.7576
CA 3.91106 4.3366 55.2193
CA -3.51873 6.36673 56.9814
CA 33.0964 -21.1037 53.2569
CA 23.7351 -19.3956 57.0478
CA 11.3334 2.98192 48.4842
CA 5.39964 11.5178 53.2014
CA 0.0819671 8.56534 53.4374
CA -0.248294 17.2225 31.9351
CA -10.759 24.3739 72.8438
CA -4.60327 10.8339 72.7266
CA 3.57002 10.6839 85.3473
CA -35.9054 4.05426 59.4747
CA 32.7682 14.8515 42.4514
CA 3.21601 13.9466 14.7604
CA 19.979 -7.59404 86.4828
CA 0.628853 13.6077 56.3645
CA 3.02043 10.3264 55.5996
CA 0.992211 8.82422 84.9402
CA 7.95866 10.3219 72.5029
CA 27.449 -23.0873 54.4486
CA 12.1688 2.06706 83.4512
CA 13.611 -6.26758 42.7557
CA 8.14892 8.53798 44.3956
CA 6.26365 15.7414 78.611
CA 20.6729 -7.40314 88.2249
CA 10.7296 -2.21994 77.0371
CA -16.6704 -17.0009 24.6987
CA 4.44727 11.9802 73.2241
CA 13.5165 14.7606 44.0802
CA 17.365 4.24701 69.0219
CA 3.22487 18.0896 76.3258
CA 2.05227 -4.88958 77.9564
CA -32.1895 6.15774 59.8778
CA -9.1773 27.0019 65.4593
CA 15.6257 -5.74048 87.603
CA 2.1376 20.7318 24.5864
CA 3.36712 21.3519 78.1017
CA 13.5076 -4.90051 87.0547
CA 6.31166 5.75984 46.6794
CA 6.83845 18.5754 56.7762
CA 35.1544 -14.4539 53.5534
CA 8.81415 -3.01433 41.6729
CA 17.4097 -5.33308 91.7739
CA 10.6454 -32.2153 65.0829
CA 19.9031 -2.25722 39.1668
CA -24.2538 3.04117 78.1531
CA 3.90502 4.4911 48.9571
CA 9.23073 -6.92206 83.7571
CA -0.796049 9.46953 76.2161
CA 22.9361 -20.248 50.1472
CA 30.9661 -9.53772 42.5033
CA 4.09426 7.86234 51.8226
CA 28.2516 12.9627 37.5834
CA 36.9264 -12.2131 46.9812
CA -3.22496 31.6026 48.0912
CA 9.7432 20.5951 51.4113
CA 10.3287 12.7101 44.7619
CA -12.8546 27.8856 65.7847
CA -23.8639 4.94157 73.7693
CA -20.461 2.89445 75.7515
CA 2.58014 6.4095 82.864
CA -2.40322 12.5141 59.9381
CA 3.61028 15.8205 76.1061
CA 32.8506 -5.46029 50.903
CA 8.60939 24.602 81.4977
CA 15.7478 0.471415 82.5198
CA 7.66812 1.92325 71.8329
CA 20.3222 -6.46581 44.152
CA 15.6682 4.67985 49.3996
CA -15.5459 -20.533 44.0743
CA 3.49873 -3.71379 46.3719
CA -0.635868 19.6933 29.7116
CA 1.76918 10.2024 73.93
CA 1.6199 24.1383 72.1845
CA 11.0593 6.29706 88.9787
CA 9.63793 -28.8805 77.5977
CA 14.7717 5.65244 19.6331
CA -20.5534 31.8692 49.8651
CA 35.7334 -16.2264 55.7386
CA 16.4011 18.3517 72.2538
CA 13.9047 -20.7824 53.4952
CA 10.8056 16.3071 71.4961
CA 1.29746 0.766618 51.3302
CA -9.85101 9.74498 50.369
CA 19.6427 -8.21237 91.7996
CA 6.2338 13.9175 65.985
CA 6.66991 6.56584 16.9936
CA 2.37031 -20.5277 52.4562
CA 8.44621 -9.00885 83.5508
CA 11.3267 -24.8562 79.2938
CA 12.5514 -3.346 76.5979
CA 22.8238 -18.4837 61.0321
CA -4.78536 26.3434 75.7996
CA 29.9772 -17.3074 43.4398
CA 6.527 12.2984 72.7267
CA 7.11533 19.5375 78.9754
CA 1.63599 5.09445 59.1239
CA -3.28304 23.1716 76.6956
CA 13.2113 -27.2704 52.5472
CA 12.0865 -4.552 51.3679
CA 17.9051 -5.02791 49.5742
CA -5.88067 29.5481 53.2356
CA 6.57528 18.839 72.7372
CA 21.5617 -9.12331 52.4545
CA -0.381075 15.0621 32.5433
CA 4.80861 21.0714 81.8251
CA -10.8176 33.0165 48.8677
CA 9.75452 11.3205 73.4063
CA -2.13511 16.5656 29.6006
CA 2.01275 3.76521 57.0816
CA 19.2454 -25.1936 56.144
CA 14.1775 -24.2467 54.6117
CA 20.8783 -21.2985 60.0704
CA -8.4817 7.0223 64.6567
CA 17.2479 -8.0707 91.2508
CA 7.20246 5.7377 52.8811
CA 32.7667 -8.22563 44.8275
CA 20.4523 -6.60785 69.7203
CA 20.4403 -20.3646 58.3901
CA 14.076 14.3404 74.3965
CA 16.6921 -22.3782 53.1765
CA 5.76958 -0.513903 50.2522
CA 15.14 -7.37125 88.6152
CA 14.6554 -5.78246 44.6854
CA 11.5502 -8.49472 91.4197
CA 19.5527 9.78775 43.8951
CA 32.9652 -11.0456 49.793
CA 1.76729 19.9406 32.5265
CA 3.158 7.16246 54.0732
CA -16.478 -20.1518 29.8242
CA 10.7581 15.665 30.8502
CA 9.86247 5.16 70.7012
CA 1.20394 5.36056 51.3803
CA -10.4235 -6.38442 84.4094
CA 6.50215 -5.91544 47.7656
CA 2.47827 -13.0662 46.0047
CA -16.4982 7.23401 55.2283
CA 5.07016 23.369 84.8569
CA 25.3539 -29.0782 50.5089
CA 4.84193 -3.63245 84.7341
CA 8.49304 12.3828 71.5874
CA 11.5787 15.2822 72.8323
CA -36.2587 -0.417252 61.7744
CA 11.5582 -7.1162 42.8517
CA 21.1736 0.41072 47.3143
CA 11.6026 -9.838 85.9362
CA 2.53886 13.2979 22.2669
CA 9.00954 6.33683 46.1553
CA -10.9813 -20.5928 42.197
CA -7.47324 29.3944 56.2085
CA 9.35526 16.6725 33.788
CA 0.918997 6.23111 72.5292
CA 22.0894 9.16459 38.382
CA 21.1453 6.35782 42.7902
CA 7.91377 -29.4398 61.2579
CA 30.9021 -8.99054 46.6542
CA 23.3128 10.3651 41.5064
CA 13.4972 9.44494 52.9818
CA 9.20769 -34.7129 60.6337
CA -9.29712 12.2048 40.7677
CA 4.79353 2.9659 79.4816
CA 7.9654 15.3637 69.4305
CA 18.1404 -19.8648 45.3697
CA 30.0655 6.76163 41.0558
CA -13.1905 9.29979 49.6934
CA 21.6984 -12.0849 50.5564
CA 5.18845 9.50948 63.3666
CA 20.3308 -2.04494 84.8045
CA -8.94047 11.4373 42.8045
CA -4.78692 29.7964 61.47
CA -39.1923 5.40027 61.6559
CA -3.64158 29.2763 48.7223
CA 13.2447 -22.5105 52.8834
CA 6.16086 7.99313 19.0293
CA -3.45582 12.3299 71.3448
CA 8.40789 2.08845 63.5682
CA 9.12663 -0.0999035 80.8757
CA -0.491177 5.92717 50.1419
CA 1.56243 20.5892 73.0447
CA 6.97131 -10.1005 84.4601
CA 2.2223 7.8873 87.788
CA 9.73783 4.77795 48.9151
CA 9.77682 -5.34847 45.4681
CA 27.4047 -12.3529 43.4779
CA 21.8325 -8.07152 56.0003
CA 10.6564 -34.8883 62.7266
CA 13.7594 7.10414 62.0876
CA -6.209 9.63743 69.0678
CA 21.0765 -23.4905 56.7764
CA 7.42328 -10.4326 81.7341
CA 6.393 19.3378 30.2111
CA -6.42774 0.292327 44.5035
CA -16.9062 25.4847 54.3424
CA 21.9973 4.57116 37.7562
CA 10.8094 -6.47412 88.797
CA 29.7076 -13.7777 51.312
CA -15.3394 5.53686 48.9511
CA 5.5984 -2.88728 50.1994
CA 1.53998 14.6758 33.4911
CA 23.7312 7.89108 38.3206
CA -19.9713 27.3026 67.4193
CA -4.58454 9.97371 61.8249
CA 2.50052 -1.31349 75.6412
CA 11.3132 -8.80829 49.5767
CA 21.3591 -11.2902 53.6445
CA -7.50001 38.4138 51.5496
CA -7.66225 11.3437 71.1685
CA 18.1296 -4.35818 40.0727
CA 10.7284 -3.21122 83.4642
CA 13.2346 -8.91574 35.2104
CA 2.46232 14.505 73.528
CA 4.96386 4.20213 82.9435
CA 11.3401 25.544 83.7858
CA 12.4698 -2.66284 46.2857
CA 1.31918 -2.69026 78.6561
CA 7.63445 12.5656 74.5388
CA 14.4712 11.4247 63.1168
CA 4.6947 3.42064 58.756
CA 14.3105 -2.43779 90.2303
CA -19.4352 8.7563 54.534
CA -8.3033 32.2721 53.4476
CA -6.10029 5.57438 61.2222
CA 9.28588 -3.19308 88.2339
CA 17.2464 -3.64464 68.4728
CA 13.0394 12.8549 33.1957
CA 16.7546 -0.852977 42.1442
CA 4.28264 27.4727 83.1268
CA 8.37026 -28.0983 79.6717
CA -0.745212 21.5501 31.302
CA 23.278 -7.66572 41.4869
CA 9.70721 10.5995 60.0972
CA 6.75527 2.36582 65.3529
CA -2.07531 3.17479 49.6971
CA 8.91646 5.19958 68.6439
CA 16.888 4.54847 71.4928
CA 14.7224 15.6451 29.5834
CA 11.2327 -26.132 55.0375
CA 17.2709 2.93707 73.4873
CA -5.17891 -7.54095 44.4133
CA -8.7149 1.67619 43.9691
CA 9.98167 11.1145 70.2663
CA 9.30974 2.01002 47.8238
CA 8.99009 14.0039 64.3421
CA 19.6424 7.58968 39.5144
CA 18.4432 1.01002 70.5401
CA -3.86575 31.7272 50.1718
CA 1.3041 19.6582 29.4959
CA 10.7015 -3.09516 91.6392
CA 18.8666 9.73617 40.0924
CA 14.5655 6.91026 65.2813
CA -2.85838 19.909 73.6203
CA 11.4279 6.58263 49.5955
CA 2.04567 -16.4392 38.4747
CA 10.5421 11.0328 62.8281
CA 17.325 -7.90024 75.6361
CA -18.8971 18.018 59.0589
CA -1.84977 27.5965 76.6101
CA -0.328168 2.04578 53.792
CA 9.07435 6.38884 80.4217
CA -16.9667 10.0615 72.0488
CA 10.5869 -8.02104 94.2099
CA 7.66138 -5.98756 83.0056
CA 9.66598 10.7758 52.7234
CA -9.6726 24.6918 51.7433
CA 14.7281 -22.306 58.934
CA 21.7915 2.74605 71.407
CA -12.5262 26.011 47.8471
CA -11.8919 -5.15439 82.7618
CA 8.91424 -5.71065 79.8807
CA 2.77028 2.02627 86.5877
CA 11.7866 9.04683 70.2073
CA -5.55497 27.5186 52.3143
CA 12.8788 14.8996 70.9983
CA 4.7437 -4.54999 41.2793
CA 5.48631 15.2418 69.9326
CA -8.97062 29.8726 62.8092
CA 24.3645 -4.78248 50.9779
CA 11.1359 -32.1037 53.4562
CA 11.4369 0.13395 86.1947
CA -11.7857 10.8355 43.2493
CA 7.62089 15.8777 53.749
CA -5.39986 9.27595 57.4843
CA -11.6283 -2.80981 82.3158
CA -15.6924 -17.8031 45.2762
CA 8.98217 4.16025 84.5726
CA 7.53401 24.8963 89.0566
CA 13.7492 10.5466 80.3054
CA 9.73014 12.2654 39.7342
CA 15.8771 -11.6228 75.8822
CA 29.042 11.0415 35.3593
CA 24.4147 -11.6251 51.1569
CA 13.3941 4.84272 73.9531
CA -22.8487 19.3382 55.2131
CA 29.954 -34.8703 48.7665
CA 3.29108 -5.01283 51.1221
CA 10.1212 8.09256 19.2854
CA 11.019 16.8845 52.8659
CA 37.1355 -27.0117 51.1453
CA 20.301 8.1971 41.4842
CA 5.14419 -1.74305 86.2655
CA 4.56215 8.84225 80.7624
CA 30.9976 -18.0622 55.805
CA 1.28188 7.74615 57.4689
CA 2.18012 -14.7376 39.7451
CA 9.6069 9.87291 19.0694
CA 13.7481 12.9774 30.8746
CA 6.07887 16.6355 62.1952
CA -1.88828 3.14441 54.0968
CA 11.7978 -32.2697 56.773
CA -7.45219 7.62227 49.8282
CA 13.1459 -9.1535 73.9219
CA 13.6999 -20.7788 50.0328
CA -9.0713 25.4342 73.1732
CA 20.8527 4.20679 70.621
CA 10.411 13.1347 61.3387
CA 31.1651 -17.8852 52.3951
CA 10.8806 17.8407 83.0345
CA 11.3505 18.1126 27.3019
CA 2.99872 -21.3317 49.8204
CA 20.9865 -21.8547 52.605
CA 4.71379 19.838 30.9487
CA 11.0635 -13.2404 65.8326
CA 8.35418 16.2424 77.0372
CA 7.22126 1.9134 85.1525
CA -12.9552 26.7726 61.8349
CA 7.9976 -34.9223 63.8273
CA 6.82779 21.8938 86.5165
CA -23.0463 -1.86493 26.7082
CA 11.2232 8.54871 77.9937
CA 21.4571 -31.6606 53.7862
CA 12.3298 -10.4112 87.6533
CA -2.5522 -5.26974 44.6493
CA -9.07411 26.9832 51.6729
CA 7.88942 21.2113 83.0888
CA 5.89296 -7.10121 82.4523
CA -17.7879 -18.1217 33.4438
CA 19.0565 -2.2005 73.0928
CA 14.0891 3.6659 87.6026
CA 9.41615 8.2531 59.5394
CA -2.28958 -38.5569 55.1607
CA 14.3223 -2.53108 46.1231
CA 20.8004 -7.56304 54.4914
CA 21.3244 -6.33305 86.0905
CA 13.7369 -7.1492 85.3969
CA 10.8523 15.7313 38.6726
CA 1.61287 4.34926 48.4509
CA 11.5219 8.54974 80.9682
CA -0.244865 3.41533 48.8852
CA 13.1848 0.676676 87.4344
CA 27.2965 -12.9559 52.1051
CA 9.58762 10.8682 15.4782
CA 19.8918 5.12286 71.8663
CA 2.97938 -2.07002 77.9781
CA 7.22391 8.12192 56.6388
CA 2.82315 -14.3806 42.4234
CA 0.708854 -2.34826 42.2936
CA 15.3109 -0.985109 54.9601
CA -0.831537 13.7757 16.6444
CA 4.69596 2.44325 65.2646
CA 8.14574 19.0478 52.0816
CA 10.7148 7.13672 65.5595
CA 30.8661 -15.0186 44.1068
CA 7.72815 21.5476 52.9124
CA 3.19005 20.2175 53.7337
CA 6.21145 10.2329 12.4001
CA 12.8965 9.99833 76.4553
CA 10.1002 14.4012 35.866
CA 12.791 5.58647 63.8343
CA 9.79364 12.8151 75.1787
CA -7.47339 28.5847 52.2343
CA 19.7186 -6.67259 71.8135
CA 12.4958 12.2539 80.7103
CA 0.422339 -20.483 50.0693
CA 17.9421 7.1893 21.2989
CA 25.2745 -31.1801 46.5152
CA -22.4062 24.9515 67.3692
CA 19.7117 0.264559 71.7971
CA 7.35698 14.9109 37.9408
CA 0.489916 9.47071 14.7303
CA -1.56232 0.927023 45.8585
CA 13.1356 12.334 73.3462
CA 2.61303 13.9389 83.0255
CA -8.29382 28.6372 50.4771
