489

CA 14.2026 -2.85688 82.5799
CA -1.52621 1.65195 41.9774
CA 33.0911 -12.8497 79.4308
CA 9.21342 19.3223 17.4025
CA 18.4564 -20.6612 86.4867
CA 35.2942 -27.1631 65.4283
CA 18.5029 3.80358 13.343
CA 24.4129 -27.6037 44.4506
CA 5.32928 -24.0212 55.4469
CA 27.3053 -3.12962 65.5139
CA 23.9847 -16.1942 43.1153
CA 10.7064 -15.8277 89.6342
CA 31.9943 -17.7326 63.2289
CA -7.24795 30.8932 18.7524
CA 29.5083 -3.01959 48.178
CA 5.59016 -0.401647 87.0748
CA 3.33372 -0.260807 57.3453
CA 20.0295 5.41972 16.18
CA 5.3025 29.9812 16.5031
CA 5.20839 33.072 18.6738
CA 28.6447 -15.9996 48.6249
CA 14.0637 0.538565 7.02289
CA 18.3181 -7.15936 62.7924
CA 18.6526 -21.2654 80.698
CA -3.94943 -14.6989 52.3625
CA 16.7528 -2.53347 17.0792
CA 33.6857 -23.4466 62.2673
CA 25.4775 -16.1735 71.466
CA 16.307 -28.0545 54.6051
CA 22.2817 -0.381111 0.173702
CA 18.7745 -3.62768 76.7581
CA 43.2 -0.571021 59.0657
CA 18.7976 -21.7783 50.9242
CA 27.3433 -16.0822 58.6963
CA 10.9048 -16.3733 65.9671
CA 8.12295 34.4289 15.5445
CA 18.5165 -19.9709 37.5316
CA 7.74234 -2.40444 80.4407
CA 11.8718 10.0231 51.4151
CA 7.32787 -4.67424 61.7534
CA 4.24359 -18.748 72.9583
CA 10.8615 1.34811 40.692
CA 8.43136 -26.303 54.9472
CA 19.5796 -27.4937 84.923
CA 21.3211 -1.37178 5.87838
CA 16.8606 -12.0355 80.9161
CA 11.1007 12.3879 14.4278
CA 11.0834 -12.6987 89.5727
CA 24.5954 -6.56044 55.7896
CA 5.38509 31.1403 14.9667
CA 35.142 -7.47618 63.3634
CA 9.64324 -4.33801 22.1989
CA 32.2596 -5.1142 83.9924
CA 7.06614 -13.9071 56.1925
CA 5.28461 20.8163 15.8925
CA 25.683 -6.11422 46.5897
CA 7.47399 -19.8902 49.5648
CA 3.93834 -5.82199 90.4812
CA 22.2112 -1.62395 59.5263
CA 10.2949 9.33927 65.2627
CA 10.346 -4.11482 68.8575
CA 3.9921 -7.94041 92.4193
CA 16.5746 -25.706 61.9849
CA 13.6135 -16.5375 70.5225
CA 16.6566 -8.97146 50.8682
CA 30.8469 3.65504 69.2425
CA 6.30124 2.67841 59.653
CA 11.0148 -8.36431 76.3044
CA 21.3518 -21.8092 50.7266
CA 19.578 -11.2042 32.414
CA 9.18495 7.11753 61.1014
CA 22.1362 -25.4549 42.7943
CA 17.0252 -2.06027 82.6814
CA 2.81193 -3.11886 46.765
CA 14.5864 6.59225 15.0071
CA 18.3571 -15.1292 34.2253
CA 18.1006 0.673313 59.0363
CA 13.3039 -13.3949 4.14951
CA 12.6929 -7.3699 4.76637
CA 23.0768 -1.68387 73.2206
CA 14.5697 -20.8526 36.5087
CA 17.3998 -20.9135 70.7435
CA 31.7681 -16.3949 67.9083
CA 11.7208 -4.47452 67.5764
CA 20.179 -0.579905 29.5789
CA 8.86164 -25.9976 62.0399
CA 7.47192 -4.2724 66.1201
CA 15.3502 -11.0887 53.4016
CA 37.6696 -22.8658 72.5546
CA 22.1044 -8.3262 69.8977
CA -8.93377 28.7947 16.1942
CA 40.8062 -20.0913 59.7276
CA 3.86184 -27.9693 54.732
CA 29.9109 -7.12824 45.5959
CA 16.4282 -0.611579 37.6419
CA 23.6307 -18.8918 72.1599
CA 13.2646 0.170665 56.6166
CA 25.304 -23.951 62.4821
CA 23.7027 -7.88297 74.5589
CA 6.49476 -17.7508 37.4562
CA 14.6961 -30.74 54.977
CA 24.5077 -5.72643 76.7875
CA 9.56436 -7.58832 55.2649
CA 3.0605 0.790664 43.7523
CA 27.7328 -25.4857 86.2401
CA 0.908056 -19.3179 72.7535
CA 21.2015 -7.45797 36.3472
CA 44.8943 -5.23301 61.497
CA 28.4749 -26.7751 59.0855
CA 8.9346 -7.76768 79.6781
CA 22.5976 -19.4113 60.6232
CA 20.6469 -23.9524 86.4537
CA 7.26584 -16.2523 93.3787
CA 10.9551 -3.58936 61.8371
CA 8.26061 -11.9607 49.3114
CA 20.2751 -25.5466 72.8419
CA 21.6513 -12.6502 64.386
CA 31.7082 -30.1489 57.668
CA -6.17668 32.0313 16.3144
CA 13.2525 -21.9745 61.3569
CA 22.9643 -26.2984 86.7658
CA 16.7681 -2.43862 50.5904
CA 18.2236 -1.09868 5.33445
CA 21.3054 -2.05623 62.6257
CA 32.2281 0.521376 64.6277
CA 44.4887 -10.2066 62.35
CA 47.8424 -11.6185 57.5309
CA 43.7863 -22.3989 63.9101
CA 6.11955 -2.81626 84.8867
CA 11.9458 2.13165 82.4798
CA 37.66 -13.6358 81.2401
CA 23.4481 -6.60618 50.3972
CA 15.4398 0.538994 0.166778
CA 32.101 -0.977149 48.0127
CA 35.0574 -4.99981 64.7216
CA 19.4245 -23.0141 60.2745
CA 35.263 -14.4978 53.8935
CA -6.65896 26.4245 17.9495
CA 9.25988 2.26784 77.9135
CA 40.1417 -25.039 67.5921
CA 26.2673 -17.0913 54.473
CA 12.2583 -17.4788 29.3911
CA 27.8877 -20.768 69.8387
CA 22.6731 -24.8376 83.2669
CA 6.66028 25.5095 17.2284
CA 30.0222 -25.1628 60.0692
CA 19.3172 -12.8122 91.1156
CA 12.5018 9.60175 55.4974
CA 11.7637 -23.026 63.5462
CA 25.8378 -7.84734 41.9488
CA 20.5288 4.5575 60.9047
CA 40.4842 -12.7746 60.9817
CA -15.141 30.4359 17.3135
CA 5.40241 17.4375 19.0494
CA 33.639 -4.36958 66.5313
CA 3.3719 -16.6061 46.2978
CA 14.3034 -24.5064 68.0479
CA 26.9995 -9.26429 74.949
CA 24.868 -9.29622 64.8987
CA 29.8586 -5.30615 44.819
CA 34.6602 -15.6835 52.4435
CA 13.5606 -9.68394 69.5108
CA 15.8144 -5.20928 25.8865
CA 15.7689 0.560835 22.9625
CA 13.4639 -11.0274 2.70976
CA 14.2228 -3.14706 38.6613
CA 16.5237 1.22093 17.6712
CA 16.7338 -24.5653 83.2391
CA 26.8147 -7.66668 69.649
CA 25.8688 -21.747 88.5273
CA 8.7307 -13.5479 67.7862
CA 44.6414 3.52369 58.9829
CA 10.1866 -10.3058 104.318
CA 11.6121 -24.7492 62.8778
CA 11.6889 -10.8719 101.541
CA 14.0495 -6.48087 73.2878
CA -3.24632 -16.9054 73.0795
CA 19.3464 -17.6383 33.2974
CA 28.193 3.22886 66.8449
CA 23.4114 0.221931 72.7984
CA 1.57016 21.6821 19.9531
CA 11.6104 -11.5072 46.265
CA -0.777335 31.2483 14.1431
CA 3.98675 22.7203 18.0485
CA 20.1662 -4.04881 7.15636
CA 33.7581 -22.0515 77.4905
CA 3.06382 -6.84336 62.0582
CA 9.26403 -20.4584 70.75
CA 19.5258 9.26977 62.349
CA 35.9099 -23.8116 74.409
CA -0.788376 2.58777 60.7435
CA -0.876703 -4.20848 85.3025
CA 15.9171 -14.4213 79.8863
CA 19.0226 -3.51875 5.17546
CA 13.2154 -15.3597 42.9431
CA 29.2335 -17.138 86.8452
CA 22.4147 -4.16073 58.5032
CA 24.9529 -8.32643 52.9775
CA 24.7556 -2.55566 53.011
CA 8.0443 35.3179 19.5219
CA 30.385 -14.8149 48.4488
CA 37.9234 -3.04822 63.0114
CA 2.54241 -19.3952 71.4546
CA 12.6919 -16.3149 95.1742
CA 34.0606 -13.5864 55.9171
CA 31.2099 -16.5055 75.9964
CA 20.3151 -6.53308 80.7204
CA 18.5824 -14.3547 35.9587
CA 16.5196 -21.264 82.1406
CA 23.6333 -15.0526 65.3028
CA 36.6588 -15.5985 78.8057
CA 8.98389 -4.17498 64.7025
CA 10.1859 25.4129 19.7511
CA 11.9401 -5.86436 68.8978
CA 18.0414 -0.703722 63.2776
CA 12.0601 -3.95033 58.2814
CA 40.7688 -9.94845 59.1407
CA 11.721 -1.23052 25.4197
CA -11.0773 27.9047 16.517
CA 15.3451 -26.5129 80.2884
CA 15.7777 -16.3468 94.4595
CA 2.84489 -5.81867 87.3588
CA 11.5967 -29.5156 54.6034
CA 37.818 -24.1916 60.1052
CA 2.9654 -4.93676 57.6777
CA 33.3807 -11.1368 78.826
CA 24.144 -27.1024 82.1069
CA 16.2614 -16.513 77.5319
CA 29.9657 -18.8835 85.3223
CA 27.3227 -15.7968 66.8135
CA 6.15974 -11.1341 56.5598
CA 29.9005 2.09442 67.4985
CA 19.2245 -14.4728 92.6135
CA 23.8294 -6.21451 36.2575
CA 4.45786 -15.5553 57.5122
CA 40.7484 -7.84414 63.2017
CA 10.6213 2.0911 6.92807
CA 19.1744 -2.73736 73.5421
CA 10.9836 -11.0974 95.9604
CA 9.47493 -20.0745 38.1249
CA 21.1089 -11.1393 78.9728
CA 9.89707 -16.7008 93.5745
CA -17.3039 27.6839 16.6325
CA 17.3899 -6.60436 46.4337
CA 36.5614 -24.881 71.5844
CA 35.0598 -27.1217 67.868
CA 12.6013 -5.49583 25.3857
CA 38.4522 -7.88147 54.2369
CA 9.72727 16.0342 14.9932
CA 19.933 3.01242 64.8943
CA 19.5416 -12.5029 77.9749
CA 33.6069 -27.1528 55.8099
CA 34.7383 0.813002 64.895
CA 11.9431 -9.50655 35.2182
CA 37.4451 -13.8416 43.747
CA -13.2882 30.3653 16.6063
CA 42.3242 -8.97213 59.0982
CA 29.3093 -0.325615 62.6409
CA 10.3384 -0.653383 39.6842
CA 32.6263 -18.1586 81.0583
CA 6.2309 16.5294 13.469
CA -2.89635 24.3472 12.7419
CA 9.91227 7.91399 50.9115
CA 30.6386 -9.22403 79.0679
CA 19.6649 -22.0163 78.308
CA 1.94767 -1.29844 61.8088
CA 22.8941 -7.38276 54.4215
CA 9.30039 -20.3769 62.6243
CA 12.1013 -1.75054 28.29
CA 4.0178 -13.1761 49.9025
CA 13.9909 -14.5739 94.3298
CA 7.15068 -11.0929 55.0571
CA 16.6653 1.04205 66.3421
CA 15.9464 -4.62497 80.2074
CA 21.9924 -1.89618 40.7116
CA 16.5533 3.66707 64.9641
CA 28.2556 -16.3937 52.6239
CA -5.89977 28.0414 15.2313
CA 15.5001 -10.6192 -3.82683
CA 19.1937 2.19388 7.36709
CA 8.24205 5.73957 57.0171
CA 26.4859 -28.3753 84.3868
CA 20.7761 8.67209 60.4866
CA 20.475 -6.89285 70.0083
CA 9.48625 -9.19151 44.8398
CA 15.9115 -22.8486 54.0833
CA 18.3378 3.5731 59.1191
CA 14.8782 -16.2983 59.8812
CA 20.5305 -4.05949 50.4129
CA 35.6418 -27.2691 57.4428
CA 27.6337 -15.9535 81.4772
CA 12.921 -23.4308 73.5354
CA 12.7371 -13.9663 67.3059
CA -6.1435 -16.2204 73.1972
CA 33.7255 -21.6467 70.267
CA 14.9915 -21.7178 39.3947
CA 10.8828 -8.81972 3.76151
CA 33.8876 -22.3614 60.5711
CA 27.9232 -4.94722 44.4176
CA 10.5488 13.2713 19.4751
CA 14.8218 -22.4449 70.2723
CA 17.063 -29.6585 55.5131
CA 13.8618 -17.6675 56.3731
CA 15.1809 -20.572 60.5137
CA 22.4106 -29.0527 53.1447
CA 16.6533 -16.7458 85.2467
CA 39.6352 -9.7943 53.1003
CA 21.5544 -1.38439 55.1408
CA 26.3421 -5.26574 74.0975
CA 6.78283 1.98975 57.8327
CA 39.7575 -7.74638 52.8788
CA 30.357 -15.1194 56.4577
CA 21.2827 -13.9009 88.6423
CA 21.5335 0.0777455 9.69448
CA 13.4309 -8.91023 23.2367
CA 38.8752 -4.71989 55.5145
CA 16.6663 -18.5595 71.1975
CA 25.4007 -21.906 52.5282
CA 1.44043 -11.2026 90.7693
CA 19.1707 -11.1935 80.6478
CA 10.9834 -20.8182 93.0485
CA 26.3715 -3.38768 47.471
CA 7.19797 -6.00336 65.1028
CA 15.8548 -18.85 88.6796
CA 14.6348 -1.59665 43.1565
CA 29.1604 -6.69187 43.7241
CA 3.04485 -9.21435 90.038
CA 16.0075 -20.1162 43.7368
CA 28.0692 -19.3511 67.072
CA 39.9838 -25.0992 59.5011
CA 38.0403 -20.1426 79.7772
CA 20.6073 -2.06453 37.6148
CA 36.72 -17.6704 63.561
CA 16.4275 -14.8005 99.7589
CA 26.4242 -14.6095 42.6308
CA 20.2156 -14.3919 81.628
CA 28.8359 -14.6817 43.7327
CA 18.3555 -21.5456 40.8362
CA -3.48173 31.8695 16.2426
CA 25.4393 -11.0195 66.5938
CA 30.7681 -13.0035 87.0512
CA 30.5955 -4.84758 46.6452
CA 28.176 -12.383 41.3738
CA 16.5166 -0.211882 33.4312
CA 24.9126 -22.1423 59.9516
CA 0.975609 -21.8449 56.7872
CA 13.7025 -9.50002 -1.74523
CA 21.213 -15.1976 45
CA 30.9606 -7.36131 55.1018
CA 26.8904 -22.2912 56.4211
CA 36.69 -22.7162 65.9929
CA 30.1614 -4.42641 81.8651
CA 6.41789 -22.3598 52.8785
CA 2.36334 -2.54655 51.7375
CA 3.18158 28.1451 17.7567
CA 32.4321 -25.6428 62.5376
CA 31.7665 -13.0919 48.1467
CA 25.4576 -23.7768 73.7024
CA 34.2794 -23.7551 55.1115
CA 33.3417 -8.38048 74.0679
CA 0.746155 -16.2613 49.064
CA 39.7466 -20.705 57.8162
CA 20.3404 7.25027 65.3151
CA 10.715 -24.4619 46.0872
CA 2.19148 24.9291 18.3972
CA 3.96825 -18.7996 58.4993
CA 10.4709 -10.1638 -2.7987
CA -8.62695 31.734 15.5233
CA 5.32481 16.9342 17.2384
CA 22.2899 -6.409 69.3799
CA 33.5525 -25.1951 51.4278
CA 35.1642 -8.68455 79.7212
CA 9.18983 -16.1366 52.6149
CA 25.9821 -18.91 61.5864
CA 27.8128 -16.4024 55.7394
CA 48.8716 -8.83986 58.346
CA 25.2022 -9.29367 75.146
CA 29.4073 -20.5024 49.2789
CA 9.76087 -3.93078 43.9651
CA 15.6267 -22.9703 80.5963
CA 12.9214 -6.36016 55.9771
CA 17.546 -5.3996 78.4391
CA 18.9514 -0.738909 3.26208
CA 16.7878 -20.06 77.7906
CA 5.02058 26.4131 17.8199
CA 13.6128 -26.0247 49.5148
CA 21.5762 6.66308 63.1586
CA 9.70254 1.06113 56.8231
CA 14.2356 -4.3732 -0.404737
CA 4.67159 -21.839 58.8966
CA 7.58475 17.7617 17.4378
CA 17.5202 -11.7059 57.2362
CA 17.5136 -18.3114 55.681
CA 39.2084 -24.1332 63.7375
CA 16.0298 -25.106 48.9915
CA 40.0531 -3.01105 56.467
CA 47.6897 -4.74254 58.8449
CA 22.1682 -13.7497 40.5418
CA -3.29621 0.276159 54.6198
CA 15.9247 -9.82931 37.1127
CA 27.4255 -20.5472 75.662
CA 12.0298 -13.8567 8.94522
CA 19.5228 4.09338 11.8574
CA 18.9114 -18.1229 35.8896
CA 28.1173 -14.564 64.7641
CA 28.1136 -17.0249 67.936
CA 3.1354 -25.825 54.7396
CA -1.45426 -1.65783 47.0524
CA -2.90811 -17.4444 68.6701
CA 15.9048 0.413018 28.1948
CA 34.6186 -11.7763 46.7116
CA 30.4704 -22.6585 54.4306
CA 27.4418 -28.7895 63.3918
CA 18.9734 -20.4221 53.8411
CA 20.2457 -9.46366 39.2931
CA 13.61 -13.0483 30.3716
CA 13.8707 -6.59496 75.2376
CA 7.10569 -12.5047 39.444
CA 17.7193 -24.7641 87.3294
CA 5.95822 -12.1549 92.2318
CA 19.5211 -30.6614 53.0724
CA 12.0061 -12.8905 32.4309
CA 16.5231 -15.5856 98.0222
CA 15.4039 -12.4738 54.7599
CA 20.7533 -1.08654 -1.68171
CA 10.4033 -19.1723 71.3403
CA 7.65649 -22.111 58.5688
CA 0.463781 -3.82555 60.7306
CA 3.95439 -19.3963 60.6867
CA 12.8926 -26.5746 51.8114
CA 12.3434 -8.14776 72.1806
CA 14.3774 -20.9609 41.078
CA 12.1776 4.27097 57.0991
CA 8.95466 -14.2965 47.2301
CA 10.5543 -29.5109 52.6005
CA 13.0036 11.1763 18.1327
CA 13.8727 -5.33692 27.0202
CA 11.1496 -23.4293 70.9647
CA 12.5427 -4.82982 46.5564
CA 13.5921 -23.6409 38.8363
CA 21.0128 -23.0581 62.8127
CA -1.75947 27.634 16.3389
CA 10.4718 -8.79111 51.7407
CA 15.5343 -20.0567 38.2616
CA 41.6792 -19.1395 63.5
CA 29.4426 -18.0708 74.5392
CA 17.7761 -4.2045 82.5644
CA 5.12984 -0.18869 40.0753
CA 15.3837 -6.16621 28.4011
CA 19.6923 -16.2773 35.6552
CA 13.5144 -20.7532 50.9131
CA 40.0482 -12.6005 62.7982
CA 25.268 -18.0415 75.8182
CA 37.9195 -18.1484 52.2241
CA 11.3875 -22.1957 47.5712
CA -1.64216 1.44935 53.043
CA 15.3495 -11.2589 60.1535
CA 34.3034 -7.16421 68.9914
CA 6.8184 -0.610802 5.62971
CA 24.4728 -12.4493 42.5407
CA 9.24644 -25.622 46.9468
CA 11.7094 35.3187 17.9397
CA 25.8481 -23.881 80.5333
CA 12.2608 -17.052 61.2524
CA 17.7661 -23.3827 39.6618
CA 5.5947 -3.25396 60.3654
CA 7.29155 -4.03701 79.6608
CA 16.2813 1.20735 84.81
CA 28.4173 -21.6078 58.3285
CA 1.33461 -14.132 53.9078
CA 16.2834 -6.13021 48.3934
CA 13.0674 -10.5537 47.779
CA 17.5283 -23.1086 78.2691
CA 32.3904 -10.6727 53.878
CA 16.8377 -1.30215 20.7971
CA 27.2542 -5.71917 33.6479
CA 10.2825 -3.21741 50.6645
CA 16.5813 -15.9658 67.9818
CA 15.3553 -8.77001 58.2652
CA 13.6462 -14.1848 45.9854
CA 2.77828 1.60082 47.0115
CA 1.45206 -5.56166 60.5424
CA 19.1011 -18.2971 45.4553
CA 22.2375 -1.38691 29.0221
CA 29.7604 -32.6914 58.615
CA 34.3337 2.26514 65.9125
CA 45.6735 -11.1913 61.2102
CA 39.9675 -13.1805 78.9982
CA -6.62041 -15.7556 56.073
