489

CA 14.2026 -2.85688 82.5799
CA 14.827 -9.85764 38.7681
CA 23.7276 -25.3792 51.4828
CA 9.21342 19.3223 17.4025
CA 18.4564 -20.6612 86.4867
CA 15.4224 -0.976328 4.90045
CA 23.3703 0.449543 7.92302
CA 24.4129 -27.6037 44.4506
CA 7.08076 -0.48407 50.5636
CA 27.3053 -3.12962 65.5139
CA 23.9847 -16.1942 43.1153
CA 37.1638 -26.202 55.6241
CA 19.1776 -10.9023 33.9541
CA -7.24795 30.8932 18.7524
CA 30.0142 -26.6455 54.2546
CA 35.8774 -24.1379 75.1501
CA 20.6444 -24.513 79.4518
CA 20.0295 5.41972 16.18
CA 34.9856 -11.9417 74.7652
CA 7.80422 -7.58943 47.7957
CA 13.8571 -22.2817 42.9131
CA 14.0637 0.538565 7.02289
CA 29.5629 -25.0346 48.5975
CA 25.8834 -13.0988 44.4257
CA -3.94943 -14.6989 52.3625
CA 16.7528 -2.53347 17.0792
CA 40.3008 -9.21143 64.6095
CA 18.0238 -15.1967 70.2221
CA 27.031 -0.297388 47.413
CA 22.2817 -0.381111 0.173702
CA 18.7745 -3.62768 76.7581
CA 43.2 -0.571021 59.0657
CA 18.7976 -21.7783 50.9242
CA 27.4252 -31.415 53.6617
CA 33.0957 -6.68113 72.3322
CA 8.12295 34.4289 15.5445
CA 18.5165 -19.9709 37.5316
CA 19.5371 -14.8435 90.83
CA 11.8718 10.0231 51.4151
CA -0.137818 -7.17264 61.2993
CA 4.24359 -18.748 72.9583
CA 30.8546 -13.5348 39.4169
CA 22.701 -18.582 62.2641
CA 12.5188 -2.11715 41.778
CA 40.5624 -11.182 76.4667
CA 20.9341 -3.40587 35.8129
CA 22.3738 -26.7984 69.7711
CA 11.1881 2.79567 74.9708
CA 24.5954 -6.56044 55.7896
CA 5.38509 31.1403 14.9667
CA 35.142 -7.47618 63.3634
CA 9.64324 -4.33801 22.1989
CA 26.2161 -1.68699 44.7747
CA 7.06614 -13.9071 56.1925
CA 5.28461 20.8163 15.8925
CA 25.683 -6.11422 46.5897
CA 7.47399 -19.8902 49.5648
CA 28.7272 -22.3134 82.2768
CA 30.854 -23.2394 64.3998
CA 6.85287 -22.6684 52.4638
CA 20.1736 -3.7296 81.6283
CA 15.3094 -18.3999 97.7154
CA 16.5746 -25.706 61.9849
CA 13.6135 -16.5375 70.5225
CA 16.6566 -8.97146 50.8682
CA 15.6696 -25.2493 45.1027
CA 29.1951 -31.0052 56.672
CA 11.0148 -8.36431 76.3044
CA 41.6796 -11.5107 44.7557
CA 8.70795 -20.9358 56.0564
CA 24.9337 4.05242 9.73812
CA 22.1362 -25.4549 42.7943
CA 12.7283 -2.29032 67.9591
CA 15.2056 -8.92304 27.2746
CA 14.5864 6.59225 15.0071
CA 17.7314 -23.3052 84.5031
CA 18.1006 0.673313 59.0363
CA 13.3039 -13.3949 4.14951
CA 12.6929 -7.3699 4.76637
CA 10.0742 -1.96426 35.4083
CA 36.8964 -12.1309 51.053
CA 21.5809 0.717607 -3.95458
CA 31.7681 -16.3949 67.9083
CA 33.1275 -23.7394 75.6989
CA 23.0036 1.52019 67.1409
CA 15.2511 -12.7788 5.98653
CA 7.47192 -4.2724 66.1201
CA 15.3502 -11.0887 53.4016
CA 6.19139 -8.2936 78.4993
CA 22.1044 -8.3262 69.8977
CA -8.93377 28.7947 16.1942
CA 29.1274 -19.6441 88.2641
CA -4.68424 21.2274 16.3039
CA 23.2849 -16.0428 81.1323
CA 16.4282 -0.611579 37.6419
CA 26.9379 -28.1373 63.9183
CA 30.1339 -31.6689 53.1667
CA 7.60436 -4.61626 75.7144
CA 23.7027 -7.88297 74.5589
CA 18.6545 -18.0583 84.6619
CA 32.4061 -9.55336 67.4532
CA 24.3137 -32.9166 60.8507
CA 20.6092 -19.0401 63.1928
CA 3.0605 0.790664 43.7523
CA 27.7328 -25.4857 86.2401
CA 0.908056 -19.3179 72.7535
CA 21.2015 -7.45797 36.3472
CA 16.4905 -7.71148 -2.65923
CA 28.4749 -26.7751 59.0855
CA 8.9346 -7.76768 79.6781
CA 26.1359 -15.4754 53.4481
CA 20.6469 -23.9524 86.4537
CA 11.7075 -4.54518 14.2763
CA 10.9551 -3.58936 61.8371
CA 8.26061 -11.9607 49.3114
CA 6.52813 -16.907 59.7428
CA 32.5796 -27.9709 53.8023
CA 11.1865 4.47032 55.0434
CA -6.17668 32.0313 16.3144
CA 16.4207 -24.7709 35.7564
CA 10.4827 -5.73324 52.8334
CA 5.44504 -17.0486 49.8049
CA 18.2236 -1.09868 5.33445
CA 13.4575 -2.89591 50.8549
CA 22.1705 -27.7802 59.0668
CA 21.2878 -27.9327 39.4078
CA 33.7551 -21.7345 63.5726
CA 23.6459 -19.2489 79.2505
CA 6.11955 -2.81626 84.8867
CA 40.7619 -11.3532 72.3861
CA 17.779 -5.13603 13.272
CA 20.4123 -6.55492 42.472
CA 15.4398 0.538994 0.166778
CA 42.7014 6.87029 60.4319
CA 23.6958 1.41957 9.63372
CA 11.4903 -23.9034 36.4731
CA -0.893779 -1.75033 60.8089
CA -6.65896 26.4245 17.9495
CA 18.9551 -25.5161 71.5023
CA 35.6082 -10.5298 79.3283
CA 26.2673 -17.0913 54.473
CA 12.2583 -17.4788 29.3911
CA 27.8877 -20.768 69.8387
CA -0.816595 -2.05481 55.5398
CA 11.7145 1.44471 31.1777
CA 30.626 -19.3096 66.6367
CA 9.9945 -1.19933 44.9605
CA 12.5018 9.60175 55.4974
CA 11.7637 -23.026 63.5462
CA 25.8378 -7.84734 41.9488
CA 20.2133 -26.1036 90.2128
CA 40.4842 -12.7746 60.9817
CA 37.4317 -18.2351 61.7879
CA 21.2755 -25.7889 85.8503
CA 33.639 -4.36958 66.5313
CA 21.9704 -2.86274 47.5389
CA 8.82174 -9.86905 95.9473
CA 27.2212 -16.739 42.3887
CA 29.3238 -17.7238 87.0602
CA 28.2395 -4.38895 81.8981
CA 17.685 -3.17063 70.901
CA 5.65977 -25.4831 59.2974
CA 15.8144 -5.20928 25.8865
CA 15.7689 0.560835 22.9625
CA 13.4639 -11.0274 2.70976
CA 7.97827 -21.2677 61.6524
CA 16.5237 1.22093 17.6712
CA 16.7338 -24.5653 83.2391
CA 26.8147 -7.66668 69.649
CA 25.8688 -21.747 88.5273
CA 20.6315 -23.4583 45.75
CA 44.6414 3.52369 58.9829
CA 10.1866 -10.3058 104.318
CA 17.3672 -8.01117 36.5782
CA 11.6889 -10.8719 101.541
CA 14.0495 -6.48087 73.2878
CA -3.24632 -16.9054 73.0795
CA 16.8491 0.827694 70.4014
CA 9.40275 3.04466 75.4997
CA 19.0626 -17.2352 82.1421
CA 31.4381 -17.1613 77.7951
CA 11.6104 -11.5072 46.265
CA -5.45696 27.2742 20.958
CA 18.0841 2.06113 15.3175
CA 4.08809 27.3579 13.9154
CA 33.7581 -22.0515 77.4905
CA 13.6289 -13.8803 58.3389
CA 9.26403 -20.4584 70.75
CA 19.5258 9.26977 62.349
CA 28.8767 -19.1011 44.5965
CA 25.9298 -6.63291 72.5119
CA 17.5995 -19.7098 95.4735
CA 15.9171 -14.4213 79.8863
CA 17.4302 -8.03228 69.8248
CA 13.2154 -15.3597 42.9431
CA 22.2275 -14.3833 46.4438
CA 17.9768 -14.1766 57.5697
CA 24.9529 -8.32643 52.9775
CA 24.7556 -2.55566 53.011
CA 8.0443 35.3179 19.5219
CA 30.385 -14.8149 48.4488
CA 24.136 -16.1122 47.6027
CA 29.9859 -15.6974 46.8846
CA 6.95514 -2.07688 79.7076
CA 5.44636 -14.836 50.3747
CA 31.2099 -16.5055 75.9964
CA 20.3151 -6.53308 80.7204
CA 18.5824 -14.3547 35.9587
CA 24.5021 -13.431 55.4968
CA 14.7902 -26.1562 72.2489
CA 9.05617 -20.6739 68.5449
CA 23.461 -17.9311 60.0435
CA 10.1859 25.4129 19.7511
CA 11.9401 -5.86436 68.8978
CA 23.125 -26.4199 63.6383
CA 12.0601 -3.95033 58.2814
CA 28.5203 -15.3266 50.7041
CA 15.0582 -21.5722 87.9312
CA -11.0773 27.9047 16.517
CA 12.2082 10.9438 54.2441
CA 18.5006 -18.0664 37.3987
CA 14.8612 -6.98552 80.1427
CA 11.5967 -29.5156 54.6034
CA 19.0356 -25.2233 76.46
CA 2.9654 -4.93676 57.6777
CA 33.3807 -11.1368 78.826
CA 5.05262 4.88634 55.7857
CA 30.9155 0.227315 61.3719
CA 41.7163 -21.4542 64.6953
CA 27.3227 -15.7968 66.8135
CA 14.1223 -0.926545 33.3711
CA 29.9005 2.09442 67.4985
CA 19.2245 -14.4728 92.6135
CA 30.6824 -33.8286 50.8588
CA 21.643 -22.2183 53.1755
CA 40.7484 -7.84414 63.2017
CA 10.6213 2.0911 6.92807
CA 18.4515 -13.9477 73.8317
CA 10.9836 -11.0974 95.9604
CA 9.47493 -20.0745 38.1249
CA 13.3108 -3.06723 86.2395
CA 9.89707 -16.7008 93.5745
CA -17.3039 27.6839 16.6325
CA 19.0643 -27.3565 49.9069
CA 10.0024 -23.5673 60.7759
CA 8.61177 -14.6135 34.7569
CA 12.6013 -5.49583 25.3857
CA 20.8785 -3.77349 58.4452
CA 9.72727 16.0342 14.9932
CA 29.4498 -6.92374 53.7752
CA 9.79266 -26.1254 51.2966
CA 33.6069 -27.1528 55.8099
CA 41.1661 -9.18663 73.6163
CA 30.5765 -19.9058 73.3569
CA 37.4451 -13.8416 43.747
CA -13.2882 30.3653 16.6063
CA 42.3242 -8.97213 59.0982
CA 29.3093 -0.325615 62.6409
CA 21.2989 -6.10877 76.0219
CA 18.9916 0.403225 15.1633
CA 11.1393 0.000425827 43.9695
CA 31.623 -20.3649 87.7565
CA 43.7076 7.18484 58.7877
CA 30.6386 -9.22403 79.0679
CA -1.16573 -3.21015 62.9505
CA 30.4088 0.805674 51.3049
CA 32.1187 -18.5765 53.1976
CA 9.30039 -20.3769 62.6243
CA 25.1516 -5.30677 54.5387
CA 10.3579 -9.82099 102.331
CA 13.9909 -14.5739 94.3298
CA 31.2539 -22.3943 76.9137
CA 38.0752 -6.9667 61.9672
CA 15.9464 -4.62497 80.2074
CA 12.3491 -0.890641 52.0353
CA 16.5533 3.66707 64.9641
CA 29.6246 -20.9604 56.4375
CA -5.89977 28.0414 15.2313
CA 31.8751 -9.5769 65.2329
CA 19.1937 2.19388 7.36709
CA 8.24205 5.73957 57.0171
CA 13.3988 -23.4781 70.7039
CA 9.85196 -19.5302 57.1964
CA 18.8172 -10.6885 93.9494
CA 15.314 -0.626909 47.0568
CA 18.4906 -29.6024 54.3529
CA 20.7254 -14.3154 82.7642
CA 16.4795 -10.7368 29.7066
CA 8.81932 -6.13979 4.77995
CA 2.49951 22.8161 17.2771
CA 27.6337 -15.9535 81.4772
CA 30.9851 -4.44482 78.0193
CA 10.7173 -1.71682 47.9403
CA 19.3628 0.413723 27.456
CA 7.10871 24.5781 15.5532
CA -3.79743 23.9139 15.6185
CA 10.8828 -8.81972 3.76151
CA 33.8876 -22.3614 60.5711
CA 39.9925 -19.3268 49.2402
CA 10.5488 13.2713 19.4751
CA 14.8218 -22.4449 70.2723
CA 23.1612 -26.7822 67.7242
CA 12.6776 -32.3202 52.4098
CA 15.1809 -20.572 60.5137
CA 22.4106 -29.0527 53.1447
CA 24.8989 -28.4069 46.0529
CA 24.5026 -28.5464 64.5936
CA 21.5544 -1.38439 55.1408
CA 12.9056 1.31679 78.8239
CA 9.18706 0.517742 58.5727
CA 39.7575 -7.74638 52.8788
CA 16.8569 -28.132 48.845
CA 21.2827 -13.9009 88.6423
CA 39.2285 -20.8594 50.0721
CA 23.4948 -21.6854 88.4793
CA 38.8752 -4.71989 55.5145
CA 24.746 -17.674 79.2408
CA 19.9102 -30.5867 77.791
CA 1.44043 -11.2026 90.7693
CA 12.4426 -26.1881 47.3252
CA 35.089 -15.4355 87.5799
CA -0.532072 0.432712 57.8099
CA 8.64847 -6.5174 81.2311
CA 1.53101 0.00973631 56.1706
CA 6.1001 -23.3908 55.4228
CA 32.5634 -17.8623 83.8544
CA 10.1645 1.99512 60.0025
CA 25.38 1.49927 65.9357
CA 22.9428 -11.3644 69.136
CA 4.63525 0.137992 55.4812
CA 38.0403 -20.1426 79.7772
CA 17.7242 -13.3557 90.2645
CA 8.22707 -24.1547 68.3003
CA 16.4275 -14.8005 99.7589
CA 7.87176 -4.83708 57.1834
CA 21.8853 6.97781 59.0901
CA 22.9789 -13.5827 57.3558
CA 8.09795 -29.554 55.4336
CA 7.98667 -15.7536 61.96
CA 25.4393 -11.0195 66.5938
CA 11.8949 -9.59348 23.8695
CA 23.0238 -16.414 55.2521
CA 21.9384 -9.00981 58.7242
CA 16.5166 -0.211882 33.4312
CA 16.1579 -4.83316 72.0399
CA 13.559 0.270956 60.293
CA 13.7025 -9.50002 -1.74523
CA 21.213 -15.1976 45
CA 21.9205 -30.2041 55.9226
CA 18.9778 -0.642192 60.7066
CA 31.8782 -5.16149 82.0562
CA 30.1614 -4.42641 81.8651
CA 9.76003 -10.2827 99.3814
CA 20.251 -15.4048 87.6528
CA 3.18158 28.1451 17.7567
CA 32.4321 -25.6428 62.5376
CA 32.2103 1.11917 48.7836
CA 25.8089 -20.1176 84.6074
CA 27.6745 -32.0856 59.8845
CA 13.2368 -4.00588 30.5238
CA 35.837 -14.7522 48.2084
CA 3.93028 -15.2844 53.6034
CA 20.3404 7.25027 65.3151
CA 27.4214 -17.2233 90.3392
CA 2.19148 24.9291 18.3972
CA 17.6639 -28.4524 72.3586
CA 10.4709 -10.1638 -2.7987
CA -8.62695 31.734 15.5233
CA 5.32481 16.9342 17.2384
CA 22.2899 -6.409 69.3799
CA 18.3624 7.10594 60.916
CA 19.2069 -15.9691 59.5239
CA 35.8135 -19.616 65.9046
CA 18.9068 -29.5609 61.7802
CA 9.46735 -2.16937 55.4644
CA 35.544 -6.55414 76.5928
CA 25.2022 -9.29367 75.146
CA 29.4073 -20.5024 49.2789
CA 9.76087 -3.93078 43.9651
CA 4.0373 -24.9779 57.143
CA 12.9214 -6.36016 55.9771
CA 11.9785 -16.0598 48.4745
CA 18.9514 -0.738909 3.26208
CA 37.4528 -22.1807 56.3057
CA 5.02058 26.4131 17.8199
CA 13.6128 -26.0247 49.5148
CA 20.6205 -20.5951 47.8007
CA 5.15972 -19.4769 63.3442
CA 14.2356 -4.3732 -0.404737
CA 15.357 -12.3649 57.6115
CA 16.0214 -4.73942 15.3702
CA 17.5202 -11.7059 57.2362
CA 25.3619 -8.31338 78.0835
CA 26.5495 -25.9914 68.2765
CA 30.0177 -17.3758 54.8138
CA 40.0531 -3.01105 56.467
CA 19.5421 -19.4551 57.2553
CA 32.9085 -1.366 65.8085
CA 14.6771 -7.26756 69.2244
CA 15.9247 -9.82931 37.1127
CA 27.4255 -20.5472 75.662
CA 12.0298 -13.8567 8.94522
CA 19.5228 4.09338 11.8574
CA 17.3974 -25.9484 72.4489
CA 28.1173 -14.564 64.7641
CA 14.3406 -3.87961 45.221
CA 27.6745 -7.17076 73.2817
CA 41.0761 -20.2419 60.8228
CA 24.2601 -13.1627 91.4428
CA 15.9048 0.413018 28.1948
CA 34.6186 -11.7763 46.7116
CA 31.0794 -7.62236 56.1488
CA 27.4695 -18.9617 87.1594
CA 18.9734 -20.4221 53.8411
CA 20.2457 -9.46366 39.2931
CA 13.61 -13.0483 30.3716
CA 19.8049 -25.7925 51.2806
CA 1.06049 -28.2087 58.1587
CA 27.4678 -23.8096 75.7702
CA 5.95822 -12.1549 92.2318
CA 19.5211 -30.6614 53.0724
CA 12.0061 -12.8905 32.4309
CA 30.4579 -22.0741 73.6513
CA 31.7727 -12.6377 63.8465
CA 20.7533 -1.08654 -1.68171
CA 10.4033 -19.1723 71.3403
CA 7.65649 -22.111 58.5688
CA 10.0948 -12.0686 102.664
CA 13.9876 -12.4749 50.5288
CA 22.6108 -1.30583 43.267
CA 12.3434 -8.14776 72.1806
CA 14.3774 -20.9609 41.078
CA 12.1776 4.27097 57.0991
CA 8.95466 -14.2965 47.2301
CA 13.9871 -12.4928 104.731
CA 13.0036 11.1763 18.1327
CA 25.278 -17.4594 90.1452
CA 21.3042 -12.8355 44.9826
CA 12.5427 -4.82982 46.5564
CA 13.5921 -23.6409 38.8363
CA 21.0128 -23.0581 62.8127
CA -1.75947 27.634 16.3389
CA 31.2416 -28.3437 62.2286
CA 19.4434 1.69604 31.3837
CA 25.9776 -28.2599 69.4858
CA 29.4426 -18.0708 74.5392
CA 17.7761 -4.2045 82.5644
CA 17.0285 -0.115333 35.4576
CA 36.7037 -8.97723 78.1665
CA 32.0265 -9.59406 75.8214
CA 13.5144 -20.7532 50.9131
CA 40.0482 -12.6005 62.7982
CA 15.5859 3.03625 62.6449
CA 37.9195 -18.1484 52.2241
CA 23.8915 -6.43811 49.788
CA 33.2765 -9.47996 48.5613
CA 13.6859 -16.2238 38.2597
CA 34.3034 -7.16421 68.9914
CA 14.6593 -15.1348 5.62068
CA 12.3379 -26.0527 57.046
CA 9.24644 -25.622 46.9468
CA 11.7094 35.3187 17.9397
CA 20.4552 -26.6164 41.3255
CA 12.2608 -17.052 61.2524
CA 17.7661 -23.3827 39.6618
CA 5.5947 -3.25396 60.3654
CA 32.105 -13.8998 44.6086
CA 16.2813 1.20735 84.81
CA 41.8316 -14.7496 42.581
CA 1.33461 -14.132 53.9078
CA 18.1016 -17.0296 71.9621
CA 18.9092 -1.95166 53.9866
CA 17.5283 -23.1086 78.2691
CA 32.3904 -10.6727 53.878
CA 8.33649 -11.9472 103.493
CA 7.12627 1.13637 44.4289
CA 21.2993 3.86592 55.234
CA 22.9523 -24.5161 41.3766
CA 18.8297 -22.0236 61.1923
CA 18.9737 -29.0887 78.7471
CA 11.2037 -11.4651 56.2812
CA 24.6354 -2.96588 43.4911
CA 19.1011 -18.2971 45.4553
CA 13.9258 -15.4964 10.2906
CA 22.4329 -31.505 52.6433
CA 22.8373 -11.4875 89.6223
CA 45.6735 -11.1913 61.2102
CA 17.0804 -21.861 54.8984
CA -6.62041 -15.7556 56.073
