489

CA 14.2026 -2.85688 82.5799
CA 19.4717 -24.6921 51.6275
CA 23.7276 -25.3792 51.4828
CA 9.21342 19.3223 17.4025
CA 18.4564 -20.6612 86.4867
CA 15.4224 -0.976328 4.90045
CA 23.3703 0.449543 7.92302
CA 21.8166 3.1179 64.1885
CA 7.08076 -0.48407 50.5636
CA 27.3053 -3.12962 65.5139
CA 23.9847 -16.1942 43.1153
CA 19.0602 -15.2885 31.6651
CA 19.1776 -10.9023 33.9541
CA -7.24795 30.8932 18.7524
CA 11.6908 -17.3839 35.9965
CA 35.8774 -24.1379 75.1501
CA 20.6444 -24.513 79.4518
CA 24.4995 -2.24842 76.3701
CA 24.0775 3.44149 66.1135
CA 7.80422 -7.58943 47.7957
CA 13.8571 -22.2817 42.9131
CA 14.0637 0.538565 7.02289
CA 25.688 -27.4364 60.917
CA 39.3016 -21.8436 60.904
CA 28.9112 -28.0544 49.1392
CA 16.7528 -2.53347 17.0792
CA 7.58405 -18.3959 59.3743
CA 18.0238 -15.1967 70.2221
CA 27.031 -0.297388 47.413
CA 14.4122 -10.4822 64.3544
CA 18.7745 -3.62768 76.7581
CA 43.2 -0.571021 59.0657
CA 18.7976 -21.7783 50.9242
CA 13.4688 -20.7024 51.0553
CA 15.7444 18.0509 55.1889
CA 8.12295 34.4289 15.5445
CA 18.5165 -19.9709 37.5316
CA 16.5811 -15.6707 58.202
CA 12.3683 -3.02911 82.0974
CA 9.59464 -10.211 50.5031
CA 4.24359 -18.748 72.9583
CA 6.41112 -3.74492 60.6445
CA 33.6364 -14.083 50.8585
CA 12.5188 -2.11715 41.778
CA 40.5624 -11.182 76.4667
CA 25.3815 -18.161 81.2017
CA 40.0131 -12.6815 57.0404
CA 29.9255 -7.83079 57.7591
CA 24.5954 -6.56044 55.7896
CA 5.38509 31.1403 14.9667
CA 35.142 -7.47618 63.3634
CA 9.64324 -4.33801 22.1989
CA 35.6245 -24.577 54.3859
CA -3.18135 27.0497 19.5693
CA 5.28461 20.8163 15.8925
CA 13.6225 -4.65895 83.2689
CA 7.47399 -19.8902 49.5648
CA 19.2934 -27.4244 82.7274
CA 30.854 -23.2394 64.3998
CA 43.4242 -12.4151 75.3132
CA 38.3823 -17.5837 50.0116
CA 13.1974 -2.93611 44.1537
CA 16.5746 -25.706 61.9849
CA 13.6135 -16.5375 70.5225
CA 33.7259 -20.791 58.421
CA 15.6696 -25.2493 45.1027
CA 1.34989 21.7976 15.9295
CA 42.8014 -25.3682 75.3078
CA 24.7674 -17.9113 48.0927
CA 11.4931 -1.16364 28.3679
CA 29.0035 -2.15658 67.7047
CA 26.7278 -19.5989 82.565
CA 12.7283 -2.29032 67.9591
CA 44.1569 -10.1622 61.2327
CA 14.5864 6.59225 15.0071
CA 23.8325 -21.6659 72.9031
CA 23.1466 -8.084 79.4488
CA 13.3039 -13.3949 4.14951
CA 12.6929 -7.3699 4.76637
CA 12.2689 -16.469 57.3545
CA 36.8964 -12.1309 51.053
CA 19.6464 -17.7845 49.385
CA 25.3584 -17.4664 75.5205
CA 30.2911 -19.3197 68.8655
CA 23.0036 1.52019 67.1409
CA 11.8022 8.55833 52.665
CA 11.3595 -22.5907 49.8295
CA 12.9741 -22.9968 64.9159
CA 10.5048 7.62729 53.7958
CA 33.1916 -23.7757 53.2725
CA -8.93377 28.7947 16.1942
CA 15.1228 -32.9206 50.6771
CA -4.68424 21.2274 16.3039
CA 21.1566 11.9336 56.6572
CA 44.4253 2.57745 58.7134
CA 26.9379 -28.1373 63.9183
CA 30.1339 -31.6689 53.1667
CA 22.7079 -29.2505 50.2545
CA 17.6423 2.07694 49.5961
CA 17.7332 -4.61444 79.4483
CA 18.1205 -3.00527 39.9459
CA 15.1365 -8.26675 3.58751
CA 26.2979 -10.6189 36.6687
CA 13.1504 7.30848 58.0238
CA 6.70199 -13.587 51.17
CA 0.908056 -19.3179 72.7535
CA 30.0562 -19.262 84.5996
CA 44.5386 -1.94259 55.2676
CA 28.4749 -26.7751 59.0855
CA 38.4719 -4.75336 54.4876
CA 23.916 -26.8182 71.9671
CA 20.6469 -23.9524 86.4537
CA 11.7075 -4.54518 14.2763
CA 10.9551 -3.58936 61.8371
CA 12.8736 -17.7816 73.4811
CA 21.6856 -11.998 66.767
CA 32.5796 -27.9709 53.8023
CA 11.1865 4.47032 55.0434
CA -6.17668 32.0313 16.3144
CA 17.4374 -18.4054 35.0322
CA 32.675 -16.4639 68.3481
CA 28.387 -8.82896 39.2853
CA 18.2236 -1.09868 5.33445
CA 46.6559 -3.53608 61.1236
CA 22.1705 -27.7802 59.0668
CA 6.69314 -25.5488 70.253
CA 22.5079 -1.68748 46.7487
CA 4.32834 -16.5693 48.2747
CA 21.0248 1.30166 67.9025
CA 9.95465 -13.5265 91.3098
CA 29.4862 -35.0571 62.731
CA 27.3903 -25.2046 51.0526
CA 15.4398 0.538994 0.166778
CA 40.3394 -10.3408 62.0476
CA 23.6958 1.41957 9.63372
CA 15.2096 -1.45829 81.8919
CA 0.0763205 -10.9076 53.0901
CA -6.65896 26.4245 17.9495
CA 18.9551 -25.5161 71.5023
CA 35.6082 -10.5298 79.3283
CA 26.2673 -17.0913 54.473
CA 12.2583 -17.4788 29.3911
CA 20.4366 -2.09343 66.756
CA -0.816595 -2.05481 55.5398
CA 22.5073 1.84215 43.7471
CA 25.3313 2.19256 43.3731
CA 24.3638 -4.39024 54.8686
CA 23.5275 -32.0466 50.533
CA 11.7637 -23.026 63.5462
CA 31.627 -26.7049 61.3156
CA 20.2133 -26.1036 90.2128
CA 40.4842 -12.7746 60.9817
CA 19.4384 -29.6289 50.7112
CA 21.2755 -25.7889 85.8503
CA 16.1088 -23.0493 46.485
CA 23.0903 -13.8161 37.2697
CA 8.82174 -9.86905 95.9473
CA 23.7875 -13.6266 67.2487
CA 21.3426 -15.3991 92.6023
CA 29.7084 -28.4442 64.7546
CA -2.48631 -10.1427 50.4187
CA 31.9693 -6.10934 67.0868
CA 15.8144 -5.20928 25.8865
CA 15.7689 0.560835 22.9625
CA 1.23856 -15.3754 44.7872
CA 23.2998 -24.3502 87.9734
CA 16.5237 1.22093 17.6712
CA 16.7338 -24.5653 83.2391
CA 39.2612 -21.5398 63.7506
CA 25.8688 -21.747 88.5273
CA 20.6315 -23.4583 45.75
CA 38.2321 -3.06292 58.0529
CA 23.8227 -19.9455 39.8319
CA 11.6228 -21.3461 41.9737
CA 11.6889 -10.8719 101.541
CA 14.0495 -6.48087 73.2878
CA 12.6296 -24.191 42.6292
CA 18.2539 -22.6259 88.0099
CA 20.2099 -12.3494 86.937
CA 19.0626 -17.2352 82.1421
CA 15.8335 -13.1078 67.1149
CA 15.3857 -4.75786 63.1977
CA 16.2143 -0.789967 41.0083
CA 18.0841 2.06113 15.3175
CA 4.08809 27.3579 13.9154
CA 24.3047 -2.62361 56.4361
CA 21.0264 -18.025 36.7592
CA 9.26403 -20.4584 70.75
CA 12.9423 -10.6903 57.3549
CA 5.13727 -17.7591 60.748
CA 25.9298 -6.63291 72.5119
CA 17.5995 -19.7098 95.4735
CA 15.4378 -3.26154 49.8387
CA 12.9294 -15.7191 47.375
CA 15.3444 6.6438 57.6549
CA 22.2275 -14.3833 46.4438
CA 17.9768 -14.1766 57.5697
CA 16.8924 -16.0581 53.3693
CA 37.4332 -4.17405 62.5864
CA 8.0443 35.3179 19.5219
CA 37.8388 -18.5594 60.6287
CA 19.5206 -12.499 50.844
CA 29.9859 -15.6974 46.8846
CA 32.1161 -15.228 51.7027
CA 38.601 -10.903 48.2824
CA 31.2099 -16.5055 75.9964
CA 40.4958 -25.0961 73.0254
CA 18.1234 -0.0629371 22.4205
CA 35.7008 0.890794 48.0953
CA 14.7902 -26.1562 72.2489
CA 11.8751 -26.5442 59.9711
CA 23.461 -17.9311 60.0435
CA 10.1859 25.4129 19.7511
CA 11.9401 -5.86436 68.8978
CA 37.0913 -12.4107 40.9625
CA 11.9505 -4.14386 54.9281
CA 10.7484 11.9398 23.9391
CA 15.0582 -21.5722 87.9312
CA -11.0773 27.9047 16.517
CA 11.8513 0.326184 34.167
CA 18.169 -9.53045 54.7699
CA 14.8612 -6.98552 80.1427
CA 11.5967 -29.5156 54.6034
CA 19.0356 -25.2233 76.46
CA 2.9654 -4.93676 57.6777
CA 33.3807 -11.1368 78.826
CA 7.52618 -9.04295 6.86717
CA 20.282 -27.598 53.2987
CA 6.28673 -8.19876 61.2564
CA 27.3227 -15.7968 66.8135
CA 21.3298 -18.5343 45.0457
CA 13.1868 -11.2199 88.4623
CA 19.2245 -14.4728 92.6135
CA 16.3449 -24.0318 50.4131
CA 17.1147 -27.9575 52.8221
CA 41.3478 1.15346 62.9326
CA 10.6213 2.0911 6.92807
CA 16.9961 -1.86638 30.2822
CA 10.9836 -11.0974 95.9604
CA 10.7102 -16.2526 4.18526
CA 11.8603 -9.48632 90.4558
CA 34.479 -21.9977 54.1009
CA -17.3039 27.6839 16.6325
CA 13.6957 -7.91241 84.6503
CA 42.5563 -10.1815 69.2898
CA 8.61177 -14.6135 34.7569
CA 12.6013 -5.49583 25.3857
CA 23.5166 -3.1489 70.3427
CA 9.72727 16.0342 14.9932
CA 34.1889 -23.3937 48.5955
CA 9.79266 -26.1254 51.2966
CA 1.80569 -20.813 47.4131
CA 44.3412 -12.3053 65.7671
CA 26.227 -15.1837 85.2114
CA 24.0088 -25.1097 67.7438
CA -13.2882 30.3653 16.6063
CA 22.8505 -5.29527 62.8091
CA 19.204 -18.0087 90.8148
CA 24.3828 -19.2817 89.7762
CA 18.9916 0.403225 15.1633
CA -1.67762 -12.7784 54.1489
CA 32.2599 -24.2449 78.132
CA 18.8638 10.5758 56.1051
CA 37.8489 -6.84326 54.4862
CA 10.7369 -21.8555 68.9649
CA 28.1027 -13.816 60.5221
CA 8.77428 -0.293677 52.409
CA 36.853 -5.9211 52.1928
CA 34.9192 -10.5907 88.9091
CA 10.3579 -9.82099 102.331
CA 15.8969 3.05229 20.0941
CA 31.2539 -22.3943 76.9137
CA 37.8375 -3.91436 67.4062
CA 23.9268 -12.292 44.0447
CA 7.69923 -6.03783 61.7955
CA 29.5276 -6.2232 66.8587
CA 7.75261 -19.916 66.0714
CA -5.89977 28.0414 15.2313
CA 9.53449 3.66335 54.9951
CA 19.1937 2.19388 7.36709
CA 30.8185 -15.4166 56.6249
CA 13.3988 -23.4781 70.7039
CA 9.85196 -19.5302 57.1964
CA 18.8172 -10.6885 93.9494
CA 24.4768 -17.7255 62.5565
CA 17.9665 -31.9098 50.3752
CA 22.8965 -19.971 37.6861
CA 37.2954 -10.1214 40.6396
CA 8.81932 -6.13979 4.77995
CA 2.49951 22.8161 17.2771
CA 27.6337 -15.9535 81.4772
CA 30.9851 -4.44482 78.0193
CA 10.7173 -1.71682 47.9403
CA 13.132 -18.0277 63.1716
CA 7.10871 24.5781 15.5532
CA 18.6678 -27.3028 59.5692
CA 10.8828 -8.81972 3.76151
CA 15.8657 -14.8 44.5679
CA 24.6718 -6.56569 74.2333
CA 10.5488 13.2713 19.4751
CA 0.34487 -16.2728 54.2457
CA 13.2614 -14.6946 60.4513
CA 2.72761 -16.3926 49.3138
CA 42.2947 -14.3702 60.5486
CA 20.0908 -0.873753 5.72415
CA 37.0007 -21.5466 49.71
CA 25.7284 -23.6097 73.6869
CA 10.5709 -9.27251 48.2303
CA 14.7841 -2.33319 32.274
CA 20.7594 -19.9804 35.7761
CA 39.7575 -7.74638 52.8788
CA 16.8569 -28.132 48.845
CA 21.2827 -13.9009 88.6423
CA 39.2285 -20.8594 50.0721
CA 3.35743 -14.5903 55.7387
CA 15.5239 -10.7814 66.0845
CA 31.6767 -25.6316 58.6988
CA 17.8532 -14.5012 80.4698
CA 40.1742 -8.66161 80.7285
CA 1.83693 -13.8378 41.7546
CA 35.089 -15.4355 87.5799
CA -0.532072 0.432712 57.8099
CA 8.64847 -6.5174 81.2311
CA 21.956 -12.5581 31.2032
CA 7.3781 -3.61551 55.8692
CA 32.5634 -17.8623 83.8544
CA 26.7755 -25.2942 47.5725
CA 25.38 1.49927 65.9357
CA 22.9428 -11.3644 69.136
CA 4.63525 0.137992 55.4812
CA 38.0403 -20.1426 79.7772
CA 32.304 -30.5417 50.2663
CA 10.6409 -2.93616 41.395
CA 16.3444 -16.9621 5.78617
CA 7.87176 -4.83708 57.1834
CA 38.7615 -19.3041 68.3342
CA 22.9789 -13.5827 57.3558
CA 8.09795 -29.554 55.4336
CA 20.2092 12.2951 61.3585
CA 27.0926 -7.36294 56.9751
CA 9.51249 -21.1271 50.6882
CA 23.0238 -16.414 55.2521
CA 17.3204 -10.9056 88.4506
CA 12.2542 -20.5017 54.4485
CA 16.1579 -4.83316 72.0399
CA 27.1729 -21.878 85.6576
CA 13.7025 -9.50002 -1.74523
CA 21.4454 -0.768834 77.7129
CA 12.9202 -13.7563 56.2939
CA 17.4151 5.10834 64.3788
CA 31.8782 -5.16149 82.0562
CA 17.5524 -13.4515 49.7105
CA 37.798 -3.18598 53.1628
CA 20.251 -15.4048 87.6528
CA 3.18158 28.1451 17.7567
CA 39.3866 3.38988 57.5937
CA 32.2103 1.11917 48.7836
CA 25.8089 -20.1176 84.6074
CA 27.6745 -32.0856 59.8845
CA 13.2368 -4.00588 30.5238
CA 35.837 -14.7522 48.2084
CA 3.93028 -15.2844 53.6034
CA 38.4163 -12.2709 43.3275
CA 21.3375 -20.6529 63.5405
CA 2.19148 24.9291 18.3972
CA 31.6087 -10.0414 56.7291
CA 37.3549 -24.1981 53.8694
CA -8.62695 31.734 15.5233
CA 5.32481 16.9342 17.2384
CA 26.619 -4.39842 58.9291
CA 18.3624 7.10594 60.916
CA 32.48 -12.0816 40.2299
CA 35.8135 -19.616 65.9046
CA 21.9941 -4.2965 56.2858
CA 18.0367 -23.0346 59.7183
CA 35.544 -6.55414 76.5928
CA 4.80935 -0.706311 46.2348
CA 42.2785 -13.8416 49.2014
CA 9.76087 -3.93078 43.9651
CA 4.89349 -30.0633 56.891
CA 17.5876 -9.27366 35.2223
CA 13.727 -24.3612 45.9147
CA 18.9514 -0.738909 3.26208
CA 14.2044 -0.363302 48.4087
CA 40.0128 4.28256 63.2092
CA 9.19657 15.239 16.9612
CA 20.6205 -20.5951 47.8007
CA 35.4594 -13.0623 63.883
CA 14.2356 -4.3732 -0.404737
CA 11.4323 -18.7374 46.9194
CA 16.0214 -4.73942 15.3702
CA 11.2907 -4.72287 66.4906
CA 23.9484 -1.41864 66.7274
CA 26.5495 -25.9914 68.2765
CA 30.4178 -15.9132 66.3174
CA 40.0531 -3.01105 56.467
CA 22.3798 -32.3577 61.3106
CA 1.20104 -0.933849 55.2259
CA 16.756 -4.80224 59.4573
CA 15.9247 -9.82931 37.1127
CA 27.4255 -20.5472 75.662
CA 12.0298 -13.8567 8.94522
CA 19.5228 4.09338 11.8574
CA 17.3974 -25.9484 72.4489
CA 28.1173 -14.564 64.7641
CA 14.3406 -3.87961 45.221
CA 27.6745 -7.17076 73.2817
CA 5.79852 30.0577 20.8818
CA 30.4302 -25.8269 78.6314
CA 15.9048 0.413018 28.1948
CA 30.6696 -5.4831 56.6615
CA 31.0794 -7.62236 56.1488
CA 21.6731 -0.835579 57.1509
CA 10.4241 -31.6278 58.4709
CA 20.2457 -9.46366 39.2931
CA 12.6385 -3.9054 60.5715
CA -7.87409 26.6086 15.1406
CA 1.06049 -28.2087 58.1587
CA 14.3483 -15.5617 36.3036
CA 5.95822 -12.1549 92.2318
CA 19.5211 -30.6614 53.0724
CA 12.0061 -12.8905 32.4309
CA 35.7984 -2.91678 68.7491
CA 19.8469 0.022892 34.2879
CA 20.7533 -1.08654 -1.68171
CA 4.8158 -8.48173 57.2077
CA 12.5668 -1.83264 63.8121
CA 15.2845 -24.1802 72.7298
CA 19.216 -13.2299 56.463
CA 22.6108 -1.30583 43.267
CA 36.8691 -22.5869 74.747
CA 14.3774 -20.9609 41.078
CA 12.1776 4.27097 57.0991
CA 8.95466 -14.2965 47.2301
CA 13.3666 -0.809232 78.5459
CA 13.0036 11.1763 18.1327
CA 24.6647 0.814868 55.1045
CA 21.3042 -12.8355 44.9826
CA 35.1725 -17.2713 69.2612
CA 20.4411 -18.7367 38.3367
CA 21.0128 -23.0581 62.8127
CA -1.75947 27.634 16.3389
CA 31.2416 -28.3437 62.2286
CA 19.4434 1.69604 31.3837
CA 10.1367 -3.59255 3.48751
CA 42.358 -11.059 76.1344
CA 12.093 -21.9795 58.5693
CA 17.0285 -0.115333 35.4576
CA -7.58647 17.5236 18.1285
CA 32.0265 -9.59406 75.8214
CA 22.6116 8.42512 62.4081
CA 40.0482 -12.6005 62.7982
CA 15.5859 3.03625 62.6449
CA 37.9195 -18.1484 52.2241
CA 23.8915 -6.43811 49.788
CA 10.2633 -5.15854 56.3761
CA 8.75144 -18.6788 4.59163
CA 11.1273 21.6288 16.6214
CA 13.2803 -22.7548 54.7918
CA 21.6638 -19.7576 58.4075
CA 32.4544 -11.8962 76.1023
CA 11.7094 35.3187 17.9397
CA 24.7509 -26.2088 69.1741
CA 34.4318 -25.8959 73.7472
CA 8.93284 -2.35141 53.725
CA 13.6173 -6.83815 71.4705
CA 32.105 -13.8998 44.6086
CA 13.0536 -4.43496 77.313
CA 41.8316 -14.7496 42.581
CA 43.4283 5.75723 55.9783
CA 28.272 -3.52245 73.8555
CA 21.5108 2.68628 53.5017
CA 29.8375 -16.5471 68.8039
CA 32.3904 -10.6727 53.878
CA 31.7346 -35.1641 54.0468
CA 7.12627 1.13637 44.4289
CA 18.7105 -5.88577 5.34086
CA 13.9425 13.7987 53.8762
CA 18.8297 -22.0236 61.1923
CA 18.9737 -29.0887 78.7471
CA 41.0033 -23.4823 74.1467
CA 24.6354 -2.96588 43.4911
CA 21.5836 -2.20489 9.63004
CA 13.9258 -15.4964 10.2906
CA 22.4329 -31.505 52.6433
CA 33.5576 -24.7459 74.9515
CA 45.6735 -11.1913 61.2102
CA 17.0804 -21.861 54.8984
CA 14.1949 2.52959 3.80895
