489

CA 12.9976 -7.01594 2.58481
CA 21.0896 -25.025 51.1653
CA 8.04629 -22.431 53.1669
CA 9.73351 -8.9252 74.9569
CA 18.4564 -20.6612 86.4867
CA 30.5653 -14.433 52.3785
CA 24.0809 -5.13225 52.5809
CA 24.6386 -0.984079 41.939
CA 18.4508 -21.6974 84.4787
CA 27.3053 -3.12962 65.5139
CA 34.9499 -28.3536 61.6068
CA 16.2236 -1.82579 35.9418
CA 18.8594 3.42173 58.7986
CA -7.24795 30.8932 18.7524
CA 29.8466 -12.6629 38.3459
CA 41.5625 -2.04315 72.9037
CA 8.03699 -27.1448 50.9504
CA 9.77195 -22.7156 52.1308
CA 45.5775 -4.07542 72.9603
CA 35.5627 -28.148 59.1925
CA 44.5577 4.56312 56.3349
CA 19.9501 -19.0682 61.645
CA 28.5527 -21.0517 92.7929
CA 30.6085 -13.1547 57.6152
CA -13.7389 29.5955 18.3819
CA 16.7528 -2.53347 17.0792
CA 44.1174 -23.0322 76.3735
CA 20.8193 -29.3441 58.62
CA 27.031 -0.297388 47.413
CA 41.9792 -3.413 57.0111
CA 29.6226 -1.82269 71.6102
CA 7.47982 -18.313 47.4796
CA 4.61819 -18.615 36.4413
CA 8.53508 -13.9591 51.1087
CA 0.253739 -0.818952 51.888
CA 8.12295 34.4289 15.5445
CA 15.9442 1.13268 36.5822
CA -0.50776 22.9701 18.3471
CA 16.4853 -21.6428 53.1575
CA 31.1135 -23.463 86.1362
CA 41.3651 -28.306 56.2843
CA 23.3896 -28.372 49.262
CA 33.3109 -23.6061 66.2583
CA 31.9264 -25.1653 87.6821
CA 29.3648 0.643973 44.8443
CA 20.0562 -21.0161 50.1654
CA 40.0131 -12.6815 57.0404
CA 13.2623 -9.70212 59.5905
CA 28.8461 -25.037 92.7324
CA 5.38509 31.1403 14.9667
CA 7.95156 -7.72866 56.9424
CA 6.86609 -3.37253 60.8759
CA 22.9978 -24.3782 54.3922
CA 19.6326 -0.0624177 18.3779
CA 5.28461 20.8163 15.8925
CA 28.7763 -4.39212 53.0361
CA 2.0573 -5.79752 60.0567
CA 15.4424 -4.29924 22.706
CA 0.506785 -3.85455 49.9969
CA 9.67766 -7.67724 80.1335
CA 33.5312 -6.75422 62.9364
CA 23.0135 -18.225 75.6057
CA 24.8155 -14.1984 61.3622
CA 36.8409 -9.83787 52.3084
CA 31.0493 -0.94871 66.2419
CA 20.257 -9.62702 88.2128
CA -11.9283 29.2014 18.5503
CA 42.8014 -25.3682 75.3078
CA 24.7674 -17.9113 48.0927
CA 17.683 -27.6698 61.1
CA 12.3584 -28.1417 48.68
CA 18.9738 -5.26884 27.6813
CA 18.1903 -25.9737 40.937
CA 23.6591 -3.30238 73.9741
CA 14.5864 6.59225 15.0071
CA 23.8325 -21.6659 72.9031
CA 23.1466 -8.084 79.4488
CA 13.3039 -13.3949 4.14951
CA 19.1897 -23.9533 37.7764
CA 8.18113 -23.2659 47.8402
CA 24.7977 2.391 76.3546
CA 15.6703 -6.92506 57.0391
CA 25.3584 -17.4664 75.5205
CA 14.1944 -8.43029 39.8702
CA 35.4422 -5.76387 68.944
CA 4.82841 -19.3523 45.3812
CA 25.6102 -29.1851 64.7724
CA 41.777 -10.3068 49.3309
CA 10.5048 7.62729 53.7958
CA 32.8791 -19.2999 55.5052
CA 3.50072 -20.1481 42.4094
CA 42.5998 -11.9823 66.0624
CA -4.68424 21.2274 16.3039
CA 45.9258 -20.4753 41.9506
CA 44.4253 2.57745 58.7134
CA 26.9379 -28.1373 63.9183
CA 8.01971 -15.7197 48.2212
CA 24.9175 -5.2885 43.1381
CA 17.6423 2.07694 49.5961
CA 20.028 -23.4169 50.5222
CA 18.1205 -3.00527 39.9459
CA 35.6548 -24.2393 56.3424
CA 37.1862 -0.167884 56.1148
CA 11.3 -13.5045 73.8812
CA 16.4198 0.744659 12.7934
CA 2.21189 -18.5866 41.1199
CA 36.2979 -12.5462 49.3415
CA 23.9224 -8.62322 68.2435
CA 43.0685 -25.5961 53.2863
CA 22.0086 -3.8094 53.6683
CA 23.916 -26.8182 71.9671
CA 15.5189 -28.1723 86.9043
CA 11.0633 -8.26216 82.9039
CA 8.26442 -21.5899 2.40023
CA 10.6665 -3.95243 24.3173
CA 31.2662 -12.0926 74.9817
CA 29.9273 -9.05616 44.7457
CA 26.4429 -11.3863 89.9432
CA 21.3908 -16.586 34.1665
CA 39.6923 -24.34 49.7056
CA 6.61935 -18.8029 62.841
CA 28.387 -8.82896 39.2853
CA 11.8614 -4.95201 75.4413
CA 46.6559 -3.53608 61.1236
CA 38.7243 -23.1264 81.8291
CA 24.2337 -18.6473 41.3407
CA -13.0679 27.325 17.0126
CA 44.168 -15.0946 46.7929
CA 9.30848 -3.35236 47.3047
CA 30.729 -11.847 53.0313
CA 29.4862 -35.0571 62.731
CA 9.25347 -19.5324 59.529
CA 15.4398 0.538994 0.166778
CA 40.3394 -10.3408 62.0476
CA 23.6958 1.41957 9.63372
CA 15.2096 -1.45829 81.8919
CA 19.1253 -8.46314 56.9183
CA -6.65896 26.4245 17.9495
CA 6.37033 -24.2625 61.0942
CA 23.5046 -23.4464 61.1737
CA 24.665 -29.8094 57.5306
CA 21.8371 -7.14248 55.3162
CA 32.1563 -20.2495 73.8658
CA -0.816595 -2.05481 55.5398
CA 19.1322 2.973 32.6148
CA 40.2652 1.81004 57.54
CA 17.8767 -12.1321 67.1788
CA 18.5072 -5.99426 22.9705
CA 25.41 -27.9673 68.929
CA 23.5562 -14.7152 32.6795
CA 8.71322 -4.66129 31.6915
CA 37.9775 -24.7768 78.172
CA 19.4384 -29.6289 50.7112
CA 15.6267 -23.2744 42.3985
CA 19.112 -7.9541 65.1684
CA 32.9185 -4.59122 55.6222
CA 17.8795 -4.69759 77.9175
CA 21.7874 -30.2218 89.3215
CA 28.9541 -20.8918 84.0382
CA 17.3183 -11.5117 37.5399
CA 28.4232 -17.2967 63.6819
CA 23.6233 -15.6637 56.2718
CA 15.8144 -5.20928 25.8865
CA 11.0763 0.501957 -0.319422
CA 3.04326 26.8562 19.6054
CA 5.50665 -19.4059 40.9241
CA 16.5237 1.22093 17.6712
CA 31.8823 -4.88451 67.8959
CA 21.8337 -14.3535 42.7745
CA 35.8035 -21.4059 73.2535
CA 16.023 4.61506 60.3635
CA 23.2561 -15.1412 69.6337
CA 30.7554 -16.0237 61.5601
CA 44.6393 -15.0854 75.2828
CA 18.0503 -26.8938 66.759
CA 14.0495 -6.48087 73.2878
CA 37.5981 -14.8615 79.0314
CA 32.107 -13.0648 73.0923
CA 31.6312 -17.4718 60.2774
CA 32.6023 -14.6357 85.5384
CA 15.8335 -13.1078 67.1149
CA 18.3321 12.6678 56.301
CA 8.99334 -27.947 57.4041
CA 18.0841 2.06113 15.3175
CA 20.796 -28.7694 48.8024
CA 28.6836 -31.2645 66.8468
CA 44.0493 -20.7101 78.5056
CA 9.26403 -20.4584 70.75
CA 20.1452 -4.82035 53.9394
CA 11.1228 10.6064 57.338
CA 38.6794 -2.35484 59.9892
CA 29.1056 -21.9476 90.7802
CA 22.8283 -19.426 42.2128
CA 13.7744 -17.7462 57.5082
CA 16.7658 -9.43307 58.7917
CA 22.2275 -14.3833 46.4438
CA 17.9768 -14.1766 57.5697
CA 16.8924 -16.0581 53.3693
CA 38.6177 -16.2315 61.722
CA 12.6659 3.73455 50.2904
CA 36.6448 -2.7922 64.8714
CA 37.9985 -2.21105 68.4281
CA 29.9859 -15.6974 46.8846
CA 32.1161 -15.228 51.7027
CA 4.09986 -22.3447 46.6226
CA 33.3306 -3.32983 68.1799
CA 17.3607 11.4985 60.2543
CA 33.3684 -23.9617 76.2519
CA 34.5974 -1.54406 77.9877
CA 11.8754 -12.5048 40.6871
CA 11.8751 -26.5442 59.9711
CA 25.8245 2.79766 74.2796
CA 10.1859 25.4129 19.7511
CA 22.1376 -26.9156 53.3761
CA 16.8404 -17.4738 36.1106
CA 11.7139 -5.61309 55.9319
CA 25.8107 -1.02454 77.5666
CA 17.4597 -18.0831 70.8164
CA -11.0773 27.9047 16.517
CA 19.2685 -15.0208 76.5417
CA 17.167 -10.4264 92.2641
CA 43.1696 -26.2867 70.7356
CA 21.8548 -16.4077 45.1332
CA 40.3416 -23.5637 58.9363
CA 22.0694 -17.9636 30.7183
CA 18.6516 -11.4784 34.9038
CA 38.3943 -14.0684 89.5974
CA 21.6086 -19.3638 33.5838
CA 6.28673 -8.19876 61.2564
CA 27.3227 -15.7968 66.8135
CA 34.0582 -19.1274 58.6754
CA 12.1533 -13.8122 51.7999
CA 15.9412 -2.31841 45.034
CA 40.0448 -25.7002 55.0985
CA 19.1634 -15.5689 47.8266
CA 41.3478 1.15346 62.9326
CA 10.6213 2.0911 6.92807
CA 20.9863 -28.6555 64.046
CA 10.9836 -11.0974 95.9604
CA 10.7102 -16.2526 4.18526
CA 33.5911 -18.7862 81.9289
CA 19.604 -18.8641 33.3687
CA -17.3039 27.6839 16.6325
CA 10.7361 -16.8491 2.04596
CA 22.8224 -20.5496 35.2687
CA 8.61177 -14.6135 34.7569
CA 16.4037 -15.4748 64.8491
CA 16.3211 -4.57989 48.9229
CA 9.72727 16.0342 14.9932
CA 15.4837 -11.6084 39.4789
CA 22.2423 -4.48966 74.9537
CA 14.4605 -21.8273 43.2523
CA 13.919 -23.2729 87.8931
CA 25.945 -14.8484 79.5375
CA 24.0088 -25.1097 67.7438
CA -13.2882 30.3653 16.6063
CA 5.98528 -20.788 56.9028
CA 19.204 -18.0087 90.8148
CA 32.2989 -2.68428 47.6087
CA 1.01215 26.3205 17.8487
CA 13.2265 -14.66 50.5888
CA 11.4037 -24.5625 76.5847
CA 13.9733 -12.7789 88.4723
CA 20.6289 -13.3309 89.3604
CA 10.7369 -21.8555 68.9649
CA 45.7497 -5.65288 55.9974
CA -15.5458 29.2469 19.375
CA 30.9261 -0.609214 75.0278
CA 24.4023 -1.39579 51.6639
CA 13.2253 -5.45965 43.8444
CA 33.5471 -18.6752 65.2651
CA 26.6973 -26.5133 69.5658
CA 36.9682 -19.2975 80.5659
CA 2.07975 -12.5417 54.5555
CA 29.435 2.02515 68.0623
CA 20.3163 -14.524 92.0853
CA 38.631 -24.5254 73.3172
CA 20.0233 6.62945 63.5681
CA 9.53449 3.66335 54.9951
CA 19.1937 2.19388 7.36709
CA 22.6424 8.93503 60.4386
CA 1.032 -10.4488 54.2773
CA 27.4197 -16.8547 85.8833
CA 34.0587 -4.96182 52.2863
CA 14.1986 -12.0475 5.74976
CA 24.5886 -9.32082 44.121
CA 11.2695 -13.6693 -2.29842
CA 16.706 -15.5905 70.2571
CA 21.5154 -23.652 43.0231
CA 28.7454 -1.48875 74.7092
CA 27.6337 -15.9535 81.4772
CA 30.9851 -4.44482 78.0193
CA 10.7173 -1.71682 47.9403
CA 32.4956 -13.335 78.4233
CA -1.33416 -9.02662 51.8979
CA 29.013 0.617593 42.9889
CA 10.8828 -8.81972 3.76151
CA 5.58848 -13.0243 55.328
CA 36.0845 0.562362 59.3004
CA 15.2185 -13.0591 93.168
CA 26.0786 -3.29597 57.5017
CA 13.2614 -14.6946 60.4513
CA 14.6631 2.86265 59.1613
CA 9.86843 -7.2487 77.0916
CA 26.8478 -0.883643 40.4017
CA 33.4235 -16.9113 51.0661
CA 36.2801 -5.86176 64.3062
CA 26.7798 -8.59679 92.3768
CA 10.1455 -23.7396 47.2822
CA 20.7594 -19.9804 35.7761
CA 26.206 -3.34224 75.9937
CA 13.4129 1.28508 59.1363
CA 13.6359 -8.52078 96.1674
CA 10.5131 4.04007 58.0541
CA 36.1954 -7.12061 51.3977
CA 35.2887 -17.6996 74.5715
CA 31.6767 -25.6316 58.6988
CA 31.9483 -26.211 61.5183
CA 45.8088 -27.5881 69.4008
CA 16.1771 -24.6531 71.577
CA 44.8928 -18.5705 79.6878
CA 26.4581 -15.7507 41.9051
CA 8.64847 -6.5174 81.2311
CA 35.3301 -18.2289 89.717
CA 32.0557 -15.8136 87.9292
CA 35.8624 -6.79833 36.5176
CA 19.0416 -28.6098 89.1194
CA 28.7556 -16.8285 65.4246
CA 27.4433 -28.3011 58.8543
CA 6.36375 26.7602 17.1203
CA 29.776 -8.28104 68.1202
CA 8.7492 -17.8171 33.6128
CA 24.8743 -10.4624 63.055
CA 28.8964 -4.29346 57.3762
CA 7.87176 -4.83708 57.1834
CA 31.7538 -23.9549 73.1712
CA 22.9789 -13.5827 57.3558
CA 41.7082 -7.71387 62.7143
CA 8.62266 -7.77439 22.9075
CA 39.6915 -17.9379 83.7422
CA 10.5455 -20.6231 57.9064
CA -8.10704 28.1155 13.3859
CA 23.8071 -7.75142 91.7689
CA 20.577 -27.6183 56.418
CA 8.49813 -3.64694 74.0949
CA 40.4957 -12.041 54.8239
CA 45.0521 -18.1407 43.0294
CA 13.6191 -3.06488 48.7418
CA 12.9202 -13.7563 56.2939
CA 37.2304 -18.4431 82.8567
CA 20.1079 1.91473 22.0921
CA 17.5524 -13.4515 49.7105
CA 18.9511 -24.2433 54.6099
CA 39.8256 -19.9049 62.9796
CA 3.18158 28.1451 17.7567
CA 28.8553 -7.30205 43.8397
CA 12.1376 -3.98467 52.9986
CA 25.8089 -20.1176 84.6074
CA 10.7886 -12.3665 51.7913
CA 13.2368 -4.00588 30.5238
CA 36.1439 -20.1337 86.2717
CA 20.7857 -4.12168 80.5375
CA 20.3823 -3.67934 37.5696
CA 43.5794 -26.9448 76.1084
CA 2.19148 24.9291 18.3972
CA 42.1883 -19.8538 72.5099
CA 37.6962 -4.08575 60.717
CA -8.62695 31.734 15.5233
CA 18.4983 4.24203 17.7487
CA 36.8293 -2.6927 52.6828
CA 23.5869 -7.67382 41.0315
CA 47.5714 -17.0185 45.3485
CA 19.0482 -24.8126 45.7816
CA 44.1833 -12.7097 45.1891
CA 14.4702 -5.55798 28.5829
CA 41.3878 -4.2631 54.8327
CA 16.9867 -18.4245 66.2681
CA 24.81 -21.9782 50.7624
CA 36.4692 -13.1398 59.1795
CA 14.5997 -25.1619 56.0828
CA 43.0195 -22.1204 84.1092
CA 13.727 -24.3612 45.9147
CA 18.9514 -0.738909 3.26208
CA 15.8685 -3.47778 33.5996
CA 31.7086 -19.5111 66.0887
CA 9.19657 15.239 16.9612
CA 10.4393 1.2942 52.8064
CA 13.7476 -12.2684 65.8404
CA 14.2356 -4.3732 -0.404737
CA 38.3632 -24.4865 54.2149
CA 16.0214 -4.73942 15.3702
CA 15.9996 -22.4668 69.193
CA 23.9484 -1.41864 66.7274
CA 12.8328 4.10241 58.9567
CA 30.4178 -15.9132 66.3174
CA 32.3036 -6.17688 51.1671
CA 15.9446 6.57165 57.903
CA 34.9002 -11.9508 36.3
CA 16.756 -4.80224 59.4573
CA 9.6501 -21.5065 60.9236
CA 27.4255 -20.5472 75.662
CA 45.4612 -18.045 45.8641
CA 19.5228 4.09338 11.8574
CA 15.9943 -27.5085 51.2953
CA 21.2906 -0.993346 2.33242
CA 32.8834 -7.00327 78.0389
CA 27.6745 -7.17076 73.2817
CA -3.28225 -9.72506 57.8487
CA 7.27495 -0.541925 61.6934
CA 23.9739 -3.68272 -1.25473
CA 27.1926 -25.4263 61.1692
CA 31.0794 -7.62236 56.1488
CA 21.6731 -0.835579 57.1509
CA 24.9032 -19.6942 62.501
CA 6.18174 -21.5503 51.094
CA 10.5928 -20.8757 45.4195
CA -7.87409 26.6086 15.1406
CA 45.1739 -29.0618 74.0061
CA 33.0383 -9.28398 67.2945
CA 21.0586 -11.2713 92.7475
CA 15.3184 -21.1827 39.0825
CA 24.3908 11.7626 64.0713
CA 45.6743 -17.7365 47.8029
CA 7.22105 17.6866 18.2558
CA 20.7533 -1.08654 -1.68171
CA 16.7486 -24.7445 60.472
CA 38.6225 -17.4843 78.3128
CA 8.55407 -5.22941 51.1483
CA 25.1142 -10.2747 48.4558
CA 22.6108 -1.30583 43.267
CA 16.1568 -5.01498 13.5822
CA 15.5383 -3.00877 -2.30725
CA 24.9051 -29.438 69.9008
CA 14.478 -8.05907 41.7456
CA 10.9586 -17.7612 61.6057
CA 13.0036 11.1763 18.1327
CA 6.10389 -31.5324 57.393
CA 27.2239 -9.57953 60.2407
CA 17.631 -13.3305 86.1572
CA 46.7396 -1.26907 56.1489
CA 28.8322 -1.45001 39.8119
CA 26.8926 -21.0963 88.1787
CA 23.1802 -19.307 85.7277
CA 23.509 -18.0217 61.6119
CA 13.7876 -5.57585 60.2381
CA 25.3364 3.44898 41.7828
CA 3.58786 -10.0469 54.8635
CA 17.0285 -0.115333 35.4576
CA 20.9045 2.67319 25.341
CA 32.0265 -9.59406 75.8214
CA 28.5696 -5.01793 59.0081
CA 8.03821 -4.68036 59.1145
CA 31.8564 -27.0421 53.4083
CA 38.5779 -16.1225 81.6688
CA 23.8915 -6.43811 49.788
CA 10.6409 -18.9829 38.9398
CA 19.8799 -18.4431 76.2109
CA 11.1273 21.6288 16.6214
CA 29.279 -1.4311 60.5811
CA 13.91 -15.0902 69.4607
CA 13.9826 -17.1222 52.5124
CA 10.5906 9.0919 18.7823
CA 24.7509 -26.2088 69.1741
CA 20.2965 -12.3436 34.0249
CA 39.3776 -20.9849 70.5497
CA 13.6173 -6.83815 71.4705
CA 32.056 3.8028 76.2562
CA 13.0536 -4.43496 77.313
CA 17.3128 -15.5678 47.41
CA 19.1412 5.31006 15.0182
CA 29.932 -6.93556 60.2393
CA 17.3322 -1.3333 25.715
CA 11.4125 -12.3316 -4.70185
CA 32.2378 -1.24564 76.3641
CA 25.7027 -21.8616 71.8968
CA 6.11275 4.13635 56.4296
CA 18.7523 -23.8908 40.3059
CA 37.547 -10.6089 62.2939
CA 16.2573 -7.79203 40.1988
CA 25.2047 -16.8568 36.9114
CA -0.587149 28.0402 17.877
CA 14.0995 -26.2105 72.149
CA 24.1959 -4.69811 65.8763
CA 35.4251 -5.77763 82.6274
CA 34.0832 -9.17862 77.6196
CA 20.5474 -21.2929 83.7878
CA 17.2921 -6.15701 28.0327
CA 20.2453 -0.617499 51.9457
CA 14.1949 2.52959 3.80895
