489

CA 12.9976 -7.01594 2.58481
CA 21.0896 -25.025 51.1653
CA 22.2301 -21.7683 49.1075
CA 9.73351 -8.9252 74.9569
CA 18.4564 -20.6612 86.4867
CA 30.5653 -14.433 52.3785
CA 24.0809 -5.13225 52.5809
CA 36.6217 -18.1494 65.254
CA 18.4508 -21.6974 84.4787
CA 23.5182 -13.4546 77.7314
CA -0.48506 -13.7689 54.4115
CA 39.5425 -10.7618 68.5044
CA 18.8594 3.42173 58.7986
CA -7.24795 30.8932 18.7524
CA 29.876 -11.4271 62.0403
CA 41.5625 -2.04315 72.9037
CA 12.219 -7.17323 38.2413
CA 23.8501 0.563827 74.6774
CA 21.949 -20.9781 60.7729
CA 35.5627 -28.148 59.1925
CA 6.11246 17.6726 15.409
CA 19.9501 -19.0682 61.645
CA 5.06496 -7.06255 65.915
CA 18.4626 -21.7098 61.4026
CA -13.7389 29.5955 18.3819
CA 16.7528 -2.53347 17.0792
CA 44.1174 -23.0322 76.3735
CA 1.97119 -2.59645 56.5358
CA 19.8128 -19.1695 38.8744
CA 22.804 -14.7074 31.3565
CA 29.6226 -1.82269 71.6102
CA 7.47982 -18.313 47.4796
CA -2.87528 23.7803 17.9036
CA 12.0883 -19.655 61.2716
CA -0.29458 -2.11307 57.482
CA 8.12295 34.4289 15.5445
CA 43.957 -19.9507 42.0593
CA -0.50776 22.9701 18.3471
CA 16.4853 -21.6428 53.1575
CA 31.1135 -23.463 86.1362
CA 21.7064 -10.8684 32.3197
CA 23.3896 -28.372 49.262
CA 33.3109 -23.6061 66.2583
CA 31.9264 -25.1653 87.6821
CA 33.0629 -9.81753 38.874
CA 20.0562 -21.0161 50.1654
CA 40.0131 -12.6815 57.0404
CA 13.2623 -9.70212 59.5905
CA 28.4611 -10.3457 84.0435
CA 5.38509 31.1403 14.9667
CA 20.1288 -15.3612 59.5358
CA 6.86609 -3.37253 60.8759
CA 30.9654 -12.5984 80.824
CA 19.6326 -0.0624177 18.3779
CA 5.28461 20.8163 15.8925
CA 14.9992 -24.1819 66.0967
CA 2.0573 -5.79752 60.0567
CA 16.6995 -27.723 50.2178
CA 0.506785 -3.85455 49.9969
CA 5.10852 -13.9369 52.7133
CA 30.5917 -1.81151 47.7345
CA 23.3127 12.766 57.3719
CA 24.8155 -14.1984 61.3622
CA 19.689 -26.0716 74.5349
CA 31.0493 -0.94871 66.2419
CA 20.257 -9.62702 88.2128
CA -11.9283 29.2014 18.5503
CA 42.8014 -25.3682 75.3078
CA 10.1504 -14.4043 45.9473
CA 45.4908 -29.3456 69.8483
CA 8.77784 19.7213 13.1274
CA 18.9738 -5.26884 27.6813
CA 29.6281 -15.3731 63.5829
CA 23.3344 -8.80536 38.287
CA 14.5864 6.59225 15.0071
CA 23.8325 -21.6659 72.9031
CA 31.4004 -18.7787 75.4393
CA 13.3039 -13.3949 4.14951
CA 24.1134 -19.2878 39.1687
CA 8.89539 -4.70471 81.8429
CA 37.679 -8.70644 68.7291
CA 20.2916 -4.68288 50.4382
CA 25.3584 -17.4664 75.5205
CA 10.8616 -1.57958 57.9876
CA 26.4213 -8.40302 90.0043
CA 19.686 -23.6352 39.8552
CA 25.6102 -29.1851 64.7724
CA 41.777 -10.3068 49.3309
CA 10.5048 7.62729 53.7958
CA 32.3861 -7.45405 85.6544
CA 34.6458 -7.1889 58.2888
CA 14.7652 -18.8041 37.319
CA -4.68424 21.2274 16.3039
CA 11.0776 -7.90124 72.3529
CA 44.4253 2.57745 58.7134
CA 13.0569 -20.9552 45.3687
CA 24.9638 -12.0207 57.9607
CA 40.539 -10.7771 53.4735
CA 17.6423 2.07694 49.5961
CA 20.028 -23.4169 50.5222
CA 25.6701 -10.1186 43.6116
CA 38.133 -14.9702 60.4773
CA 16.9214 2.04125 55.1645
CA 10.1826 -28.536 61.4259
CA 15.9219 -21.9092 71.2551
CA 17.7595 -10.6315 8.29921
CA 36.2979 -12.5462 49.3415
CA 23.9224 -8.62322 68.2435
CA 19.045 0.110357 48.7631
CA 22.0086 -3.8094 53.6683
CA 22.9912 -23.3228 75.7836
CA 15.5189 -28.1723 86.9043
CA 32.2293 -19.6172 61.1589
CA 8.26442 -21.5899 2.40023
CA 10.6665 -3.95243 24.3173
CA 16.4056 -5.20591 57.6777
CA 22.1154 3.91303 75.9815
CA 26.4429 -11.3863 89.9432
CA 33.8833 -13.571 75.1379
CA 20.772 -4.08914 22.5538
CA 39.2345 -30.1314 57.109
CA 3.55303 -4.69087 62.7335
CA 23.358 -21.9496 74.6677
CA 18.2188 8.60847 60.7653
CA 35.3705 -28.2576 81.0221
CA 24.2337 -18.6473 41.3407
CA -13.0679 27.325 17.0126
CA 10.9124 -30.9487 61.8959
CA 11.8911 -10.802 60.2806
CA 12.7259 -1.29177 23.3653
CA 13.2691 -22.6069 62.8195
CA 32.3614 -25.4014 76.2951
CA 15.4398 0.538994 0.166778
CA 6.7932 -1.51968 59.976
CA 23.6958 1.41957 9.63372
CA 25.8993 -2.56736 79.0137
CA 7.41041 38.4268 15.3779
CA -6.65896 26.4245 17.9495
CA 24.4012 -6.96746 68.8611
CA 23.5046 -23.4464 61.1737
CA 16.1285 -3.01561 37.457
CA 42.756 -2.19875 76.4564
CA 32.1563 -20.2495 73.8658
CA 7.40412 -32.5464 59.2845
CA 17.4353 -24.6916 74.315
CA 40.2652 1.81004 57.54
CA 0.998932 -10.3472 49.9186
CA 35.4651 -2.35125 54.9378
CA 25.41 -27.9673 68.929
CA 8.04443 -23.6633 55.0512
CA 39.8935 -14.4932 61.2644
CA 37.9775 -24.7768 78.172
CA 9.05131 -19.6798 54.3665
CA -0.643115 -4.65565 54.5284
CA 19.112 -7.9541 65.1684
CA 24.5124 -25.9533 73.8386
CA 17.8795 -4.69759 77.9175
CA 21.1634 -3.86469 64.5667
CA 28.9541 -20.8918 84.0382
CA 17.2443 -11.26 65.7045
CA 29.3161 -16.388 65.2958
CA 23.6233 -15.6637 56.2718
CA 27.6318 -12.4133 65.5737
CA 11.0763 0.501957 -0.319422
CA 32.5019 -14.7945 49.4272
CA 5.50665 -19.4059 40.9241
CA 15.5319 -5.37936 63.8147
CA 31.8823 -4.88451 67.8959
CA 34.5549 -23.006 77.5641
CA 35.8035 -21.4059 73.2535
CA 16.023 4.61506 60.3635
CA 4.57202 -12.4647 55.8135
CA 16.73 -20.1352 59.1308
CA 33.96 -24.0417 51.5593
CA 17.0318 -25.7769 39.3235
CA 14.0495 -6.48087 73.2878
CA 37.5981 -14.8615 79.0314
CA 21.9299 -18.8385 59.574
CA 14.3556 -2.78213 55.3611
CA 33.2297 -9.99615 70.4942
CA 15.8335 -13.1078 67.1149
CA 18.3321 12.6678 56.301
CA 8.99334 -27.947 57.4041
CA 18.0841 2.06113 15.3175
CA 1.70574 -10.5457 46.9846
CA 22.7874 -14.9776 81.6939
CA 37.9003 -12.8276 50.7662
CA 30.5965 -1.06755 53.7663
CA 8.63375 -22.8249 63.6862
CA 11.1228 10.6064 57.338
CA 38.6794 -2.35484 59.9892
CA 10.0974 -7.71918 40.3838
CA 6.1969 -3.68621 65.6665
CA 13.7744 -17.7462 57.5082
CA 16.7658 -9.43307 58.7917
CA 6.81067 -1.50995 65.8472
CA 23.5924 -6.94558 43.1041
CA 30.3246 -8.08251 35.9009
CA 38.6177 -16.2315 61.722
CA 15.7528 -4.64374 45.6965
CA 8.06334 -20.7012 50.6539
CA 37.9985 -2.21105 68.4281
CA 23.857 -3.13184 73.4721
CA 32.1161 -15.228 51.7027
CA 17.5131 6.77958 21.1327
CA 40.885 -14.4776 56.3689
CA 13.5533 -15.3669 32.7534
CA 16.9447 -25.4943 53.1424
CA 13.6677 -13.1534 49.6272
CA 11.8754 -12.5048 40.6871
CA 11.8751 -26.5442 59.9711
CA 25.8245 2.79766 74.2796
CA -11.8236 35.0328 17.6853
CA 31.3564 -23.9856 62.058
CA 31.1493 -12.5027 43.1843
CA 20.0828 -23.4445 53.3007
CA 17.1709 -3.77122 82.0851
CA 17.4597 -18.0831 70.8164
CA -11.0773 27.9047 16.517
CA 27.2722 -16.6354 51.392
CA 17.167 -10.4264 92.2641
CA 43.1696 -26.2867 70.7356
CA 21.8548 -16.4077 45.1332
CA 40.3416 -23.5637 58.9363
CA 22.0694 -17.9636 30.7183
CA 19.9044 -22.3386 36.3468
CA 12.5907 -8.24783 74.1957
CA 11.2995 -12.7953 0.0769042
CA 31.7923 -24.2178 83.3822
CA 29.3825 -9.14015 89.063
CA 21.0548 -1.72906 68.274
CA 40.5218 -3.45968 74.1229
CA 22.4928 -4.44784 55.2822
CA 41.8353 -2.76311 68.9121
CA 20.4636 -11.7605 49.0257
CA 18.0943 -13.582 89.8555
CA 10.6213 2.0911 6.92807
CA 44.6718 -31.0994 75.8716
CA 31.1771 -9.3698 71.1239
CA 10.7102 -16.2526 4.18526
CA 23.7435 -4.9174 69.1273
CA 29.2262 -11.1889 87.9646
CA 24.9074 -14.5961 37.2476
CA 10.7361 -16.8491 2.04596
CA 7.99134 6.20895 50.8758
CA 41.7067 -2.09411 60.6471
CA 30.0597 -13.7803 47.4807
CA 15.8189 3.36654 11.6032
CA 9.72727 16.0342 14.9932
CA 20.2889 -8.84532 35.1936
CA 22.2423 -4.48966 74.9537
CA 35.9523 -26.1596 79.8028
CA 13.919 -23.2729 87.8931
CA 41.5048 -18.1623 53.0722
CA 12.6976 -6.45635 29.7256
CA -13.2882 30.3653 16.6063
CA 11.1735 -26.7335 63.6962
CA 19.204 -18.0087 90.8148
CA 32.2989 -2.68428 47.6087
CA 13.4236 12.4137 16.343
CA 27.7664 -17.4111 43.2728
CA 23.3093 -24.3156 54.1676
CA 12.5548 -26.109 52.0568
CA 13.5957 -2.35954 52.778
CA 24.5093 -3.06897 47.5726
CA 14.789 -1.97048 29.9113
CA 18.5424 -8.99573 86.7947
CA 24.6514 -9.95628 71.3946
CA 24.4023 -1.39579 51.6639
CA 43.242 -27.7782 75.6941
CA 27.9171 -26.5646 70.5735
CA -0.541073 -7.40987 53.5965
CA 36.9682 -19.2975 80.5659
CA 2.07975 -12.5417 54.5555
CA 33.9 -13.7206 53.3802
CA 29.7674 -13.5413 62.6448
CA 12.8389 -16.2877 61.7604
CA 20.0233 6.62945 63.5681
CA -5.92534 31.8123 22.1618
CA 19.1937 2.19388 7.36709
CA 22.6424 8.93503 60.4386
CA 26.7298 -16.1433 92.1256
CA 15.194 -17.7296 40.4606
CA 43.012 -28.9997 78.3539
CA 14.1986 -12.0475 5.74976
CA 35.7104 2.18851 80.0332
CA 20.262 -11.1929 68.7338
CA 16.706 -15.5905 70.2571
CA 14.7369 -14.8856 67.5263
CA 28.7454 -1.48875 74.7092
CA 27.6337 -15.9535 81.4772
CA 18.1294 -27.1324 69.8494
CA 15.3501 -20.0266 35.9136
CA 32.4956 -13.335 78.4233
CA -1.33416 -9.02662 51.8979
CA 29.013 0.617593 42.9889
CA 10.8828 -8.81972 3.76151
CA 25.7346 -20.8338 35.5353
CA 24.8825 -12.4423 42.1709
CA 15.2185 -13.0591 93.168
CA 26.0786 -3.29597 57.5017
CA 9.24484 -4.11981 55.3641
CA 34.4205 -23.0759 58.6714
CA 15.6237 -9.1217 56.5498
CA 23.7509 -19.6309 34.4816
CA 14.0232 -10.8647 26.7292
CA 36.2801 -5.86176 64.3062
CA 21.1108 -11.4572 45.2283
CA 10.1455 -23.7396 47.2822
CA 10.1631 -17.1818 69.0407
CA 20.7301 -11.1064 76.4949
CA 13.4129 1.28508 59.1363
CA 13.6359 -8.52078 96.1674
CA 9.00831 -6.17455 71.5426
CA 7.54552 21.4717 19.1209
CA 29.4856 -26.4807 48.1283
CA 12.8661 -12.7432 34.6645
CA 31.9483 -26.211 61.5183
CA 35.142 -26.1143 71.1428
CA 16.1771 -24.6531 71.577
CA 33.0158 -10.4616 73.3451
CA 42.3945 -5.57905 57.0924
CA 8.64847 -6.5174 81.2311
CA 35.3301 -18.2289 89.717
CA 38.7083 -2.61224 57.0491
CA 30.4373 -18.2913 62.5287
CA 22.2139 -17.7713 79.1455
CA 28.4905 -7.46699 54.0886
CA 27.4433 -28.3011 58.8543
CA 6.36375 26.7602 17.1203
CA 14.4469 -17.2987 93.5407
CA 38.3879 0.132162 55.7124
CA 21.9741 -5.01219 39.8299
CA 29.04 -15.4491 36.9976
CA 7.87176 -4.83708 57.1834
CA 32.9893 -25.3482 49.9314
CA 19.9979 3.1218 60.7751
CA 41.7082 -7.71387 62.7143
CA 33.337 -10.3804 53.8264
CA 17.4101 -14.282 71.8087
CA 19.1322 -15.5665 48.683
CA 8.33862 17.0944 14.4552
CA 7.12294 -28.0032 49.0279
CA 27.4965 -13.7158 93.3617
CA 8.49813 -3.64694 74.0949
CA 21.9468 -12.373 74.8478
CA 20.0398 -14.0894 49.1729
CA 31.5824 -16.3467 47.3825
CA 23.664 -7.80597 77.0571
CA 8.35419 4.22813 6.00782
CA 20.1079 1.91473 22.0921
CA 22.8014 -10.6815 93.4953
CA 31.1997 -9.86795 74.9802
CA 39.8256 -19.9049 62.9796
CA 3.18158 28.1451 17.7567
CA 28.8553 -7.30205 43.8397
CA 12.1376 -3.98467 52.9986
CA 25.8089 -20.1176 84.6074
CA 15.259 -24.2051 44.8926
CA 13.2368 -4.00588 30.5238
CA 21.6645 -5.90745 72.7365
CA 20.7857 -4.12168 80.5375
CA 20.3823 -3.67934 37.5696
CA 43.4814 -7.84416 55.3485
CA 2.19148 24.9291 18.3972
CA 33.324 -4.97009 39.7895
CA 37.6962 -4.08575 60.717
CA -8.62695 31.734 15.5233
CA 18.4983 4.24203 17.7487
CA 14.639 -5.54531 48.6569
CA 23.5869 -7.67382 41.0315
CA 47.5714 -17.0185 45.3485
CA 28.2849 -14.6049 42.5364
CA 44.1833 -12.7097 45.1891
CA 14.4702 -5.55798 28.5829
CA 41.3878 -4.2631 54.8327
CA 33.1939 -2.87298 50.0363
CA 24.81 -21.9782 50.7624
CA 36.4692 -13.1398 59.1795
CA 18.0453 -21.7014 32.9696
CA 27.3348 -4.99506 77.8063
CA 13.727 -24.3612 45.9147
CA 18.9514 -0.738909 3.26208
CA 15.8685 -3.47778 33.5996
CA 8.01203 -9.04169 73.1533
CA 9.19657 15.239 16.9612
CA 10.4393 1.2942 52.8064
CA 42.6302 -28.508 73.7008
CA 14.2356 -4.3732 -0.404737
CA 38.3632 -24.4865 54.2149
CA 16.0214 -4.73942 15.3702
CA 15.9996 -22.4668 69.193
CA 21.0294 -1.74537 65.583
CA 12.8328 4.10241 58.9567
CA 19.8888 -12.331 55.2648
CA 32.3036 -6.17688 51.1671
CA 14.5996 -7.23277 37.6188
CA 33.3489 -7.56736 34.2279
CA 16.756 -4.80224 59.4573
CA 9.6501 -21.5065 60.9236
CA 27.4255 -20.5472 75.662
CA 24.4384 -9.98955 41.4975
CA 12.4479 -4.75313 50.1459
CA 32.338 -13.8525 80.5903
CA 21.6744 -12.8619 95.0097
CA 33.667 -21.9797 56.3911
CA 32.4197 -5.21015 81.7557
CA -3.28225 -9.72506 57.8487
CA 7.27137 -17.4031 45.7727
CA 38.0303 -0.910931 79.6784
CA 27.1926 -25.4263 61.1692
CA 31.0794 -7.62236 56.1488
CA 21.6731 -0.835579 57.1509
CA 10.749 -21.1579 45.8079
CA 29.675 -28.4809 48.4813
CA 39.5886 -1.80552 75.5989
CA -7.87409 26.6086 15.1406
CA 45.1739 -29.0618 74.0061
CA 13.7286 -25.0117 49.102
CA 36.4047 -1.72061 78.6996
CA 9.2134 -29.6732 49.0552
CA 1.92495 -3.45257 63.6388
CA 41.1607 -4.71138 78.7158
CA 7.22105 17.6866 18.2558
CA 20.7533 -1.08654 -1.68171
CA 30.3929 -6.41109 80.6
CA 31.7904 -23.4097 71.4686
CA 21.5452 -13.6569 77.4096
CA 16.1384 -15.2225 32.3885
CA 31.8771 -13.4565 88.0123
CA 16.1568 -5.01498 13.5822
CA 20.2447 8.98766 54.1963
CA 1.72842 0.620778 57.6733
CA 28.3798 -16.1442 61.7859
CA 27.6249 -17.0547 85.4191
CA 13.0036 11.1763 18.1327
CA 40.1419 0.234636 77.1589
CA 27.2239 -9.57953 60.2407
CA -0.805126 -9.92904 56.2279
CA 26.2578 16.1893 59.3522
CA 28.8322 -1.45001 39.8119
CA 26.8926 -21.0963 88.1787
CA 11.1797 6.09417 56.3966
CA 16.2636 -12.8959 48.4392
CA 13.7876 -5.57585 60.2381
CA 25.2452 -4.77248 73.7965
CA 9.69525 -13.5676 42.6321
CA 17.0285 -0.115333 35.4576
CA 43.4957 -30.55 68.3333
CA 28.9804 -12.7469 34.7548
CA 28.5696 -5.01793 59.0081
CA 45.9668 2.91438 57.0819
CA 29.2351 -5.72508 38.7811
CA 36.8272 -25.7396 56.4101
CA 44.4149 -22.3255 45.6399
CA 24.2688 8.50667 58.8295
CA 19.7468 -5.18472 77.7158
CA 11.1273 21.6288 16.6214
CA 7.92759 -5.53434 76.3899
CA 14.8384 -8.40747 43.0699
CA 13.9826 -17.1222 52.5124
CA 10.5906 9.0919 18.7823
CA 29.7903 -19.5108 89.6125
CA 20.2965 -12.3436 34.0249
CA 39.3776 -20.9849 70.5497
CA 13.6173 -6.83815 71.4705
CA 17.9766 -19.0796 88.1781
CA 13.0536 -4.43496 77.313
CA 16.8697 -0.15274 11.9029
CA 19.0006 -18.6974 35.3255
CA 27.2181 -25.7004 86.467
CA 17.3322 -1.3333 25.715
CA 8.85237 -16.4121 43.0121
CA 29.0768 -18.825 40.2676
CA 25.7027 -21.8616 71.8968
CA 10.1708 -6.97476 21.318
CA 20.5693 -21.268 64.0004
CA 37.547 -10.6089 62.2939
CA 16.2573 -7.79203 40.1988
CA 22.7595 13.6405 55.2605
CA -0.587149 28.0402 17.877
CA 12.9839 -4.52769 36.7709
CA 17.3719 -29.6016 55.8805
CA 35.4251 -5.77763 82.6274
CA 33.2895 -21.1538 77.8565
CA 37.712 -8.24817 37.1374
CA 17.2921 -6.15701 28.0327
CA 21.4377 -11.898 90.2853
CA 14.1949 2.52959 3.80895
