489

CA 12.9976 -7.01594 2.58481
CA 8.18999 -14.0529 45.3097
CA 4.26301 -6.1946 68.6394
CA 40.7619 -17.5274 70.895
CA 9.28005 -13.3632 60.9986
CA 35.4169 -30.635 72.0384
CA 20.9447 -6.18429 60.7407
CA 4.84374 -10.2704 72.472
CA 39.5375 -30.0459 71.4413
CA 38.1711 -19.4796 75.8775
CA 23.0823 -8.03646 64.1244
CA 19.9083 12.0809 54.6672
CA 43.7488 2.14252 57.5384
CA -7.24795 30.8932 18.7524
CA 22.0351 3.79888 72.5959
CA 11.44 -6.65358 51.5279
CA 22.3289 0.152448 37.8359
CA 21.5212 8.62969 56.6262
CA 21.949 -20.9781 60.7729
CA 1.00396 -16.1757 54.1648
CA 32.6778 -2.76462 49.0167
CA 31.7914 -26.0216 44.8595
CA 21.9896 -17.4401 40.3297
CA 18.4626 -21.7098 61.4026
CA -13.7389 29.5955 18.3819
CA 16.7528 -2.53347 17.0792
CA 15.6898 -26.8193 74.0671
CA 38.5976 0.59444 55.9551
CA 11.3249 14.7346 15.4772
CA 22.9379 -23.358 54.8048
CA 14.222 -28.9077 66.0249
CA 18.3323 -23.0295 72.0159
CA -2.87528 23.7803 17.9036
CA 31.0465 -16.9916 81.1718
CA 30.1131 -6.37207 39.4158
CA 8.12295 34.4289 15.5445
CA 14.2883 1.34484 62.3413
CA 21.5629 -12.0537 50.7361
CA 44.2796 -11.411 46.7852
CA 24.6647 -18.6586 41.8986
CA 22.1159 -11.0895 85.4653
CA 20.9818 4.67395 74.2819
CA 42.3306 -22.6633 78.4837
CA 45.9795 -20.0819 62.3189
CA 36.4151 -25.0969 80.5493
CA 33.8798 -17.615 50.2779
CA 36.0474 -33.5114 81.1276
CA 35.744 -5.28265 80.1902
CA 28.4611 -10.3457 84.0435
CA 5.38509 31.1403 14.9667
CA 3.91809 -3.74884 51.9032
CA 13.7373 -0.387461 24.5201
CA 30.9654 -12.5984 80.824
CA -0.468348 30.8266 19.2739
CA 5.28461 20.8163 15.8925
CA 47.4851 -17.9013 66.5639
CA 21.0697 -18.4109 71.6171
CA 34.1674 -4.50265 61.9986
CA 49.6338 -25.6614 71.6123
CA 22.574 -3.97629 64.4016
CA 33.8284 -12.2882 76.131
CA 26.3598 -9.97342 59.0895
CA 31.4572 -13.9201 52.3592
CA 15.1807 -24.1094 69.1517
CA 30.8797 2.15717 58.2484
CA 6.93092 -10.0028 58.3283
CA 18.2136 -17.7703 65.1663
CA 46.8786 -18.6083 60.8782
CA 24.0572 -5.34494 3.04186
CA 19.7843 -17.0083 57.8535
CA 24.1698 -10.6084 33.1522
CA 22.4174 -16.3719 75.2477
CA 29.6281 -15.3731 63.5829
CA 20.7318 -10.4193 45.3154
CA 14.5864 6.59225 15.0071
CA 33.1383 -12.7125 34.6754
CA 45.9053 -25.1632 60.4625
CA 13.3039 -13.3949 4.14951
CA 30.3668 -0.679136 79.1933
CA 16.8519 -26.7292 48.9271
CA 21.9691 -1.41176 2.84811
CA 36.496 -18.6167 48.7301
CA 18.4655 -25.7051 39.3622
CA 25.0391 -16.8978 35.892
CA 18.1736 -7.83221 28.0712
CA 44.4175 -10.3341 44.5039
CA 21.75 -8.43151 49.8163
CA 41.777 -10.3068 49.3309
CA 25.7767 -2.77806 79.6564
CA 33.4575 -22.5027 61.5422
CA 34.7395 -7.33615 68.0986
CA 19.0335 -24.6154 74.4401
CA 27.2464 -22.5566 83.8426
CA 14.5521 -21.6546 63.9176
CA 37.7705 -10.2639 80.3877
CA 14.4734 -16.0215 38.4911
CA -12.0789 34.3116 19.522
CA 42.2884 -29.7482 57.0699
CA 25.5855 -0.733133 57.4884
CA 32.352 -24.1498 71.4497
CA 36.1567 -1.31504 64.8761
CA 7.10743 -12.8501 43.8546
CA 19.8807 -12.9993 67.1558
CA 48.0488 -20.3345 59.393
CA 33.1588 -23.5439 66.3875
CA 14.6984 2.02442 58.9975
CA 20.2608 -20.9118 52.0231
CA 48.2299 -18.6414 74.6304
CA 20.5403 -19.4092 34.5246
CA 33.4301 -22.3503 81.0864
CA 24.0593 -8.64899 69.0692
CA 33.7622 -12.599 43.7876
CA 22.9178 -9.39538 82.8105
CA 27.2766 -7.67549 92.1627
CA 25.804 -25.6678 53.2411
CA 11.0076 -12.9835 58.8074
CA 27.8809 -13.6805 62.6162
CA 19.7302 -8.09811 34.9695
CA 21.3941 -22.813 40.2912
CA 25.3784 2.79765 61.4604
CA 28.2493 -17.0485 43.2136
CA 26.487 -2.07014 88.994
CA 19.2585 2.49636 14.4389
CA 50.9072 -28.1354 79.776
CA 40.4506 -23.8895 72.1402
CA 22.8888 -23.6833 90.948
CA -11.2428 31.334 15.7637
CA 31.4634 -25.183 41.9264
CA 21.8259 -0.370873 69.7366
CA 28.1798 -17.3875 67.7766
CA 21.8307 -16.1198 51.5526
CA 38.1691 -21.1984 77.1151
CA 15.4398 0.538994 0.166778
CA 29.2611 2.39477 76.3181
CA 9.66209 -5.88584 68.5665
CA 20.5005 -3.77578 34.3415
CA 7.41041 38.4268 15.3779
CA 0.148637 29.2403 15.2428
CA 43.5103 -17.6419 83.8318
CA 44.2547 -15.7652 73.4839
CA 11.2655 -11.6553 46.3036
CA 21.1428 9.66212 51.6342
CA 12.1629 2.09372 16.0827
CA 43.5256 -28.2373 76.6153
CA 20.7265 0.924405 53.9787
CA 14.5869 -15.5173 61.059
CA 26.8318 0.955108 57.6113
CA 38.7567 -7.53839 47.157
CA 33.6738 2.77089 55.1452
CA 27.8194 -26.2132 44.8055
CA 7.73189 -12.7667 48.9947
CA 37.9775 -24.7768 78.172
CA 42.9525 -34.8455 54.3234
CA 34.6569 -8.98233 76.9663
CA 16.9504 -9.08126 30.4662
CA 18.7385 -6.34191 86.9746
CA 20.4104 -24.1898 45.2497
CA 25.987 5.29384 73.1104
CA 10.3683 -4.50154 60.4918
CA 19.4854 -5.47253 26.3333
CA 31.3769 -22.826 56.4736
CA 21.1115 -0.38425 40.2166
CA 43.0604 -4.3681 64.5405
CA 11.0763 0.501957 -0.319422
CA 27.5855 -16.7169 88.2454
CA 21.3001 -5.85138 43.7626
CA 45.5165 -24.3281 79.3666
CA -9.55157 29.3555 18.8268
CA 2.7121 -15.8867 54.9494
CA 10.0125 -22.1795 52.9541
CA 20.6116 -13.4919 48.7674
CA 2.77664 -3.71671 54.6009
CA 34.3492 -1.15712 63.9299
CA 2.10795 23.886 15.8513
CA 16.508 2.25358 14.2849
CA 17.9091 -22.9623 89.9004
CA 27.9178 -14.9666 52.2579
CA 19.3541 -27.4717 52.5223
CA 34.5394 -1.81865 51.4403
CA 20.6796 1.77046 50.2909
CA 13.1788 -5.11975 52.8542
CA 45.0145 -7.01545 47.0044
CA 43.9231 -17.8706 80.0274
CA 14.9281 -14.5451 2.4196
CA 26.3693 -18.5654 87.5925
CA 28.3635 -9.17165 51.9375
CA 29.7044 -12.6758 63.508
CA 30.5965 -1.06755 53.7663
CA 20.4566 -21.8282 50.1435
CA 24.7745 -32.2566 50.6871
CA 39.6842 -6.56471 54.4794
CA 22.3457 -13.1001 78.0712
CA 47.1248 -19.3081 78.0432
CA 10.0199 -21.2398 49.1148
CA 27.6991 -21.113 89.2042
CA 33.9142 -3.83434 72.804
CA 32.2619 -1.28089 66.2561
CA 8.84283 -9.53657 2.26629
CA 43.1024 -5.21803 44.3725
CA 7.48641 -9.72489 44.7945
CA 20.4548 -14.2044 90.3459
CA 23.1609 -5.29639 68.1336
CA 13.5007 -13.9703 42.5161
CA 46.1639 -19.374 74.2622
CA 19.7658 6.06205 55.2126
CA -0.184098 -10.2426 69.0406
CA 47.0091 -15.5203 60.2346
CA 18.0384 -3.98136 66.2213
CA 12.3586 2.66055 3.08843
CA 21.0668 -20.9067 42.8349
CA 16.2704 -24.8836 33.6761
CA 18.7777 -3.35525 63.0347
CA -11.8236 35.0328 17.6853
CA 31.3564 -23.9856 62.058
CA 31.285 -10.0664 35.7559
CA 22.1115 -10.0766 77.2703
CA 28.7382 -3.41777 71.2422
CA 27.204 -17.9572 55.938
CA 5.62519 19.3463 17.1731
CA 24.2095 -10.6817 83.6408
CA 36.7271 -13.3447 38.0895
CA 16.9559 -6.9694 4.72856
CA 33.4368 -26.4418 46.8198
CA 35.323 -31.4785 78.7461
CA 23.2202 3.45754 71.1424
CA 5.3791 -10.2951 2.68964
CA 13.0554 -16.4845 60.2669
CA 11.2995 -12.7953 0.0769042
CA 3.77716 -9.86159 64.8275
CA 12.9631 -22.1573 57.1673
CA 20.0984 -0.943817 53.7409
CA 12.9317 -2.1292 58.1813
CA 22.4928 -4.44784 55.2822
CA 41.2525 -29.2594 74.8446
CA 33.1128 -7.24638 40.7229
CA 16.5816 -17.8291 61.4098
CA 35.2569 -21.5384 58.891
CA 32.4339 -17.595 61.8588
CA 23.9527 -10.3728 73.0176
CA 10.7102 -16.2526 4.18526
CA 42.2569 -27.2299 62.0772
CA 3.81764 19.3417 18.9817
CA 30.9321 -10.5565 39.0356
CA 11.2956 -13.3969 40.17
CA 0.184719 -13.7461 68.5113
CA 22.7054 -14.449 76.8817
CA 22.3974 -20.3709 84.3548
CA 44.5596 -14.5971 63.302
CA 9.72727 16.0342 14.9932
CA 40.9435 -20.4945 82.1665
CA 24.8713 -13.3565 56.6244
CA 8.16161 -6.95128 68.6215
CA 18.2185 -25.5845 56.7829
CA 20.8094 3.40093 53.3071
CA 48.9214 -27.1195 68.6076
CA 11.0782 -7.37882 58.4068
CA 11.1735 -26.7335 63.6962
CA 20.6713 -23.9671 90.6232
CA 6.13606 12.3404 21.3674
CA 28.4218 -4.0859 78.1706
CA 24.6836 -11.2493 37.412
CA 10.2121 -1.17071 69.6382
CA 30.2286 -25.1964 47.5765
CA 20.0906 -17.7353 85.5231
CA 14.645 5.51771 29.2592
CA 9.92792 -13.456 44.9721
CA 47.2898 -22.8564 65.9175
CA 14.2388 -17.9708 6.22613
CA -7.21079 27.6362 16.5861
CA 10.1218 -9.37009 50.0927
CA 21.2512 -0.649474 43.7113
CA 33.7071 -14.9948 34.1266
CA 32.5566 -21.2377 58.2543
CA 23.9936 -5.89374 45.7541
CA 11.6144 -21.6892 45.218
CA 7.75094 -15.0696 57.2656
CA 22.8041 -15.209 88.7798
CA 23.9566 -18.5282 89.3061
CA 35.1292 -14.2589 53.4127
CA 49.773 -17.3813 63.1685
CA 27.9548 -20.0333 85.2432
CA 1.30138 28.7537 17.2615
CA 28.5101 -25.4563 46.6365
CA 19.1259 -9.09658 80.902
CA 6.48939 16.4531 21.7338
CA 13.2175 -17.5041 -0.42977
CA 28.8278 6.28521 54.9697
CA 37.1543 -4.39726 68.9934
CA 30.7714 -8.69435 45.0077
CA 13.469 2.40429 25.224
CA 23.1587 -9.7803 36.8387
CA 12.0619 -11.4897 30.4653
CA 6.78312 -19.7929 48.532
CA 30.4729 -14.4017 80.3285
CA 16.3329 -9.31154 60.307
CA 30.053 -11.9843 67.6011
CA 36.5783 -18.291 64.9953
CA 47.3634 3.05044 60.1169
CA 36.6821 -20.8235 74.3288
CA 24.1553 -18.6088 79.6115
CA 26.0786 -3.29597 57.5017
CA 28.8811 -0.748511 47.4234
CA 8.10794 -17.0696 45.8986
CA 29.2427 -25.2043 62.4107
CA 10.8177 -10.7869 66.5564
CA 40.8191 -28.5191 69.895
CA 36.2801 -5.86176 64.3062
CA 31.0744 -2.17464 55.8967
CA 23.0885 -0.759007 56.8657
CA 24.5532 -19.5048 77.5151
CA 29.1339 -10.3846 57.1239
CA 29.7656 -2.10252 85.9127
CA 21.1722 -7.99881 45.9564
CA 21.0015 -8.84154 69.3394
CA 24.1408 0.332493 33.2746
CA 17.6127 1.68381 50.1118
CA 33.5089 -3.24907 67.8334
CA 25.373 -21.2761 56.5784
CA 35.142 -26.1143 71.1428
CA 14.4905 -9.41842 2.09188
CA 20.3299 4.43287 61.221
CA 8.50989 -5.8817 64.5081
CA 24.3347 -14.0658 93.2656
CA 17.7405 0.878814 13.1306
CA 31.4678 -9.22864 89.7688
CA 16.9601 -3.20168 68.1286
CA 24.8679 -21.1371 73.5236
CA 42.3248 -8.58809 54.2404
CA 26.0555 -30.1117 48.6124
CA 4.22821 -13.8205 62.9632
CA 34.0195 -6.0993 42.6448
CA 29.6622 -4.73475 92.9888
CA 15.8582 -2.63351 51.8362
CA 36.4725 -19.8863 55.0611
CA 35.709 -20.7719 60.7646
CA 13.5157 -14.3813 66.9237
CA 15.0188 2.77145 57.1646
CA 36.8116 -35.1925 77.5864
CA 33.337 -10.3804 53.8264
CA 22.8323 -18.0525 73.9215
CA 19.1322 -15.5665 48.683
CA 8.33862 17.0944 14.4552
CA 19.7792 15.805 58.3137
CA 27.4965 -13.7158 93.3617
CA 24.3082 -9.00735 50.645
CA 28.5477 -4.4425 4.60498
CA 33.2098 -24.4978 42.4282
CA 32.5185 -9.47714 56.0479
CA 1.0602 28.1676 19.2834
CA 25.8099 -28.8936 44.1472
CA 33.5134 -23.3027 75.2346
CA 22.8014 -10.6815 93.4953
CA 44.9947 -12.5229 64.1259
CA 7.79858 -5.65849 55.576
CA 3.18158 28.1451 17.7567
CA 10.6672 -21.1235 51.4828
CA 15.6201 1.21022 64.6137
CA 12.3333 -20.8289 48.8755
CA 42.6649 -7.12418 66.8229
CA 23.5296 -9.71325 59.9981
CA 43.331 -0.881926 61.4133
CA 11.8341 0.249851 55.8816
CA 24.7514 5.7861 70.0967
CA 23.2779 -3.44452 40.7166
CA 2.19148 24.9291 18.3972
CA 24.6215 -6.3731 73.5833
CA 40.295 -13.6197 67.4785
CA -8.62695 31.734 15.5233
CA 18.4983 4.24203 17.7487
CA 47.6095 -24.4882 78.3145
CA 21.3952 -5.17423 3.46904
CA 23.5194 -30.2872 45.4967
CA 15.8438 -3.16416 25.9648
CA 45.0316 -34.1936 56.0523
CA 19.0779 -9.76709 69.6692
CA 23.7043 -34.8152 43.2704
CA 31.0262 -15.6404 65.9041
CA 29.6921 -27.8895 50.0864
CA 28.5168 -1.29721 71.1418
CA 15.2419 -1.37431 53.8117
CA 9.26343 -3.42776 59.3728
CA 28.4694 -9.0206 36.1504
CA 37.1324 -12.4023 75.772
CA 29.1716 -6.68188 50.1252
CA 1.31641 -19.5337 56.8239
CA 9.19657 15.239 16.9612
CA 23.3825 -22.7958 61.2668
CA 17.2979 -28.8738 49.9135
CA 14.2356 -4.3732 -0.404737
CA 40.291 -9.31957 46.7556
CA 16.0214 -4.73942 15.3702
CA 32.8524 -2.29732 37.8783
CA 17.46 -13.2807 65.3835
CA 31.3643 -16.5922 51.6417
CA 48.6186 -22.0276 68.6998
CA 50.7163 -28.0319 71.3456
CA 11.328 -12.4599 48.9169
CA 46.0823 -26.2583 78.2921
CA 20.3188 0.287583 33.9698
CA 23.6799 -15.5241 52.8736
CA 14.3648 -19.8968 34.1043
CA 34.6016 -14.6066 75.2368
CA 23.6482 2.71207 42.0204
CA 19.0654 -6.18507 39.3751
CA 23.8717 -22.174 71.0998
CA 23.2037 -23.1993 52.8743
CA 17.749 5.19932 28.9849
CA 11.5077 2.77111 56.6431
CA 9.10878 -25.1926 53.1897
CA 38.6539 -9.90133 57.5869
CA 15.1166 1.60453 8.04876
CA 33.866 -29.371 78.393
CA -3.19398 28.8563 15.7951
CA 12.2729 -14.7578 35.4801
CA 51.5478 -17.4906 80.1756
CA -16.3323 29.9937 17.5733
CA -7.87409 26.6086 15.1406
CA 21.8858 -3.4502 37.2346
CA 19.7268 -2.5563 10.3827
CA 38.1106 -7.96827 83.0172
CA 20.3056 -4.10216 71.1468
CA 21.5767 -21.6165 38.3945
CA 20.9505 -30.1037 45.789
CA 7.22105 17.6866 18.2558
CA 20.7533 -1.08654 -1.68171
CA 25.6623 -24.9239 65.9012
CA 31.4322 -1.5339 2.40702
CA 17.7109 -7.28287 6.41661
CA 25.4909 -2.54704 4.61427
CA 18.2925 -16.4004 33.0126
CA 15.1794 -7.87166 30.7262
CA 12.3277 -17.5269 41.0657
CA 43.3212 -24.678 77.0489
CA 37.5283 -15.3785 55.0645
CA 45.9823 -14.5301 69.572
CA 13.0036 11.1763 18.1327
CA 25.4385 -19.9415 42.9317
CA 20.0561 -24.0078 51.7586
CA 44.9627 -20.7506 63.7621
CA 22.9178 -23.4326 73.3823
CA 14.8868 -25.3359 49.2139
CA 31.7919 -15.9799 72.2238
CA 14.0123 -2.63469 64.9236
CA 16.2636 -12.8959 48.4392
CA 32.0456 -14.757 39.0372
CA 39.1191 -12.3539 66.6933
CA 22.5876 -17.2989 90.0237
CA 21.2693 -8.7592 87.1812
CA 49.1238 -23.1808 65.0598
CA 32.3566 -5.80125 54.3605
CA 20.7152 -7.63307 32.865
CA 29.9417 -13.7779 36.211
CA 18.1251 0.445298 22.2732
CA 2.67352 -12.5121 55.932
CA 8.26627 -3.48767 66.9504
CA 18.3041 -21.7966 49.0302
CA 26.5885 -24.8009 81.7775
CA 29.9144 -3.04345 2.26575
CA 37.3415 -21.1254 57.7424
CA 28.9848 -23.8766 44.0424
CA 17.018 -28.7105 69.0781
CA 10.5906 9.0919 18.7823
CA 26.761 -8.69961 73.8082
CA 14.5154 -6.39272 14.8727
CA 22.5171 -12.0263 34.4373
CA 22.2869 -19.0987 70.2824
CA 31.2343 -10.604 75.5903
CA 25.7873 -18.7301 66.3272
CA 29.1958 -16.6369 48.1861
CA 21.9529 -30.1481 40.9082
CA 16.8156 -18.654 64.3159
CA 44.9856 -23.4733 60.9118
CA 21.2489 -5.0165 26.5045
CA 9.20698 -27.3797 58.1819
CA 31.5229 -12.9403 72.6164
CA 20.5489 -8.37459 30.1821
CA 3.62328 -22.8263 49.8148
CA 49.1174 -28.8515 64.6574
CA 18.6723 0.551093 17.7418
CA 29.3109 -18.5301 81.1191
CA 4.21014 29.9971 18.4049
CA 25.8599 -17.0413 61.7457
CA 46.9574 -17.5092 70.8067
CA 11.7313 -24.2669 43.8088
CA 38.5307 -12.3087 53.1745
CA 18.9657 -0.630814 11.9617
CA 19.7023 -26.1885 75.138
CA 28.4787 -5.47885 46.948
CA 31.7665 -11.5235 42.7647
