489

CA 20.9041 -27.7338 52.6077
CA -2.66852 -33.6539 52.238
CA -24.6816 7.7523 72.5077
CA 10.7901 -3.38463 44.6406
CA 11.8889 15.688 49.7638
CA -1.52023 3.53852 57.8358
CA -2.82311 -1.62341 48.0024
CA 2.23197 12.2658 58.3822
CA -0.73993 31.193 60.5883
CA 16.1957 3.90282 52.4259
CA 4.33939 5.74217 70.2777
CA 11.6348 -11.1484 47.64
CA 18.7191 -26.552 53.6706
CA 19.2668 -19.372 49.6836
CA 10.288 13.9965 67.0805
CA 2.05923 0.567231 47.171
CA 33.8633 -12.9225 55.2952
CA -12.1284 26.2301 70.7328
CA 10.7805 6.17749 47.2581
CA 3.90557 23.1442 84.11
CA -14.1352 7.68973 72.6056
CA -27.2484 5.05755 76.8722
CA 7.08728 1.07739 87.4339
CA 13.0736 -2.44892 78.1066
CA 2.67256 -16.0575 41.4984
CA 4.3338 5.40396 56.7124
CA -1.6156 6.56127 57.9855
CA 0.959326 0.304323 52.5856
CA 0.16066 -1.3702 45.5472
CA 25.1169 -21.7598 54.0096
CA 7.00271 16.8967 73.4284
CA 15.0454 1.92437 74.2261
CA -10.6973 11.5639 73.9379
CA 38.4611 -29.8501 52.4774
CA -0.651828 -1.41409 48.5287
CA 1.31775 3.79673 52.5554
CA 19.1512 -10.7817 92.7009
CA 16.0889 20.7985 72.6293
CA -11.7436 8.84967 41.1583
CA 0.232026 2.69056 54.1454
CA 11.6139 28.9728 81.2446
CA 12.4765 9.46412 73.1816
CA 1.39856 13.2574 71.146
CA 2.32836 -17.6689 46.9746
CA -10.7672 -6.35634 81.3911
CA 19.1672 -1.13997 52.9746
CA 10.4268 17.2618 30.0337
CA 13.8173 2.38162 89.8986
CA 1.06014 -9.99092 43.5171
CA -6.36214 20.7582 71.5442
CA 13.589 -5.23302 52.1134
CA 11.9172 13.4371 46.7458
CA 12.4027 -3.31479 75.6365
CA 19.989 -27.4456 55.7786
CA 6.24218 -11.6908 50.4948
CA 25.2551 -20.8298 56.5893
CA 8.59625 -10.5751 82.1955
CA 6.12619 2.37815 58.3596
CA 23.12 -8.74442 39.5103
CA 15.7195 -3.35078 53.4611
CA 1.52329 17.2047 67.5387
CA 3.09869 16.549 64.2935
CA 2.76631 -1.19913 81.0733
CA 36.5174 -16.3439 54.0458
CA 6.96715 17.3117 34.6277
CA 25.5916 -12.3972 44.0256
CA 25.3747 -18.6051 45.5389
CA 18.0089 -2.14776 45.1715
CA 22.4804 -6.88052 43.9611
CA -4.64112 -9.3088 49.3169
CA -7.25218 8.00479 69.4126
CA 11.2808 10.664 68.4081
CA 11.5911 5.16565 52.7462
CA 1.58947 17.5651 77.0636
CA -10.0616 -17.4056 42.2679
CA 2.70982 0.582496 55.0149
CA -1.05804 23.7646 71.8898
CA 13.1151 -6.08803 91.285
CA -14.3608 -18.4658 41.7073
CA -35.1531 -0.69994 64.1188
CA 25.501 -10.0152 50.3566
CA 20.8696 -25.5235 51.4462
CA 11.7766 -0.909395 50.8568
CA -5.40522 31.4902 53.3841
CA 11.24 -8.69682 46.3949
CA 4.41468 -5.12329 86.9406
CA 12.0485 -3.96225 81.9962
CA 11.3441 14.9766 74.751
CA 0.84493 21.2836 73.9009
CA -3.75908 22.872 50.6358
CA 0.560918 -7.09607 43.0858
CA -20.3703 5.21707 75.7278
CA -10.7622 -11.5522 74.8106
CA 31.2918 -12.5798 46.1664
CA 24.0401 4.72143 47.5534
CA 35.1413 -31.9658 53.6534
CA -1.40203 -37.9406 51.5524
CA -8.07258 24.1833 45.2049
CA 7.71256 11.5909 57.8741
CA 1.51307 12.5205 16.574
CA 2.33891 9.8409 86.479
CA 15.4875 -1.70403 84.597
CA 5.58721 -1.7036 88.1682
CA 15.876 -0.806302 48.5298
CA 3.11616 13.5303 71.7294
CA -18.7295 -17.1863 24.7576
CA 17.6687 -13.0063 42.7575
CA 37.99 -20.4281 54.3466
CA -10.001 3.72583 49.5951
CA 20.0281 1.68315 40.9883
CA 11.3334 2.98192 48.4842
CA 5.39964 11.5178 53.2014
CA 18.9126 -23.0727 60.585
CA 0.108948 29.5106 56.3666
CA -10.759 24.3739 72.8438
CA -4.60327 10.8339 72.7266
CA -6.89236 26.8843 48.2834
CA 20.7183 10.0749 44.2159
CA 11.9792 -4.93076 78.2089
CA 3.21601 13.9466 14.7604
CA 15.787 13.0654 49.3388
CA 10.5138 13.4387 51.0903
CA 3.02043 10.3264 55.5996
CA 10.9412 -9.62194 40.2538
CA 0.699043 -37.6122 57.9035
CA 28.5877 -23.9983 55.7404
CA 12.1688 2.06706 83.4512
CA -14.6301 -16.7915 25.7678
CA 1.46463 12.0333 81.3792
CA 19.3966 -3.69254 86.4209
CA 4.24081 18.1266 78.9845
CA 7.56959 -5.90298 87.9191
CA -16.6704 -17.0009 24.6987
CA -2.93779 5.52638 88.3833
CA 13.5165 14.7606 44.0802
CA 1.2603 -35.4855 55.85
CA 3.22487 18.0896 76.3258
CA 11.3205 -5.62293 95.8687
CA 37.7754 -16.9835 56.1392
CA -2.05223 5.51445 86.488
CA 15.6257 -5.74048 87.603
CA 2.1376 20.7318 24.5864
CA 0.419739 6.89402 54.321
CA -25.47 -2.05736 27.8381
CA 3.28834 16.6452 26.9563
CA 10.5167 14.8323 47.8434
CA 24.5828 -23.2098 51.4695
CA 8.81415 -3.01433 41.6729
CA -0.157632 3.7164 56.4048
CA 23.7054 -29.271 52.5073
CA 1.07314 12.982 83.2292
CA 42.0384 -28.8105 49.9596
CA 3.90502 4.4911 48.9571
CA 9.23073 -6.92206 83.7571
CA 2.45331 -7.69208 90.7081
CA 7.14587 24.4851 26.4945
CA 30.9661 -9.53772 42.5033
CA 1.91267 26.1935 72.2374
CA 28.2516 12.9627 37.5834
CA 24.4214 -16.8207 50.6748
CA -3.22496 31.6026 48.0912
CA 9.7432 20.5951 51.4113
CA 10.3287 12.7101 44.7619
CA -5.24833 8.11062 66.6931
CA 2.73015 -4.12234 87.8303
CA -20.461 2.89445 75.7515
CA 3.2581 0.237076 51.883
CA -2.40322 12.5141 59.9381
CA 3.61028 15.8205 76.1061
CA 32.8506 -5.46029 50.903
CA 8.60939 24.602 81.4977
CA 29.0073 -20.2277 43.1751
CA 7.25049 8.20917 65.674
CA 20.3222 -6.46581 44.152
CA 3.07192 19.1813 28.0146
CA -15.6159 -18.688 38.0375
CA 3.49873 -3.71379 46.3719
CA -3.58244 40.6752 51.1256
CA 9.18989 -8.70012 85.2672
CA 1.6199 24.1383 72.1845
CA 5.54418 17.8903 29.311
CA 19.6634 -22.0366 56.1186
CA 7.61237 6.27069 70.025
CA 7.89532 13.6806 32.8823
CA -0.643091 25.4072 72.5058
CA 4.77299 -9.87981 88.5133
CA 14.7267 -8.71712 45.3459
CA -10.8778 13.637 40.2966
CA 23.8548 -8.96704 52.7808
CA 15.6489 -22.3062 60.5934
CA 19.6427 -8.21237 91.7996
CA 5.91591 8.48466 48.2134
CA 8.16448 3.0054 68.8675
CA 2.37031 -20.5277 52.4562
CA 8.44621 -9.00885 83.5508
CA 27.579 -15.3695 51.8734
CA 2.43299 5.46307 65.1715
CA 12.4844 16.9094 31.0453
CA -4.78536 26.3434 75.7996
CA 12.6077 -3.72675 73.5036
CA 6.527 12.2984 72.7267
CA 7.11533 19.5375 78.9754
CA 9.36786 22.0515 72.158
CA -1.61637 18.2226 56.6812
CA 9.34045 27.3465 79.2888
CA 12.9028 12.0065 67.1172
CA 13.6968 15.3172 67.4279
CA 23.1586 -18.6821 44.39
CA 6.57528 18.839 72.7372
CA -32.9935 3.3558 64.0155
CA -0.381075 15.0621 32.5433
CA 4.80861 21.0714 81.8251
CA 3.14567 13.2203 49.01
CA 21.8706 -1.23953 68.1155
CA 20.0161 -28.8614 54.4665
CA 2.01275 3.76521 57.0816
CA 35.7596 -13.5691 52.9259
CA 5.70826 16.0248 28.8253
CA 20.8783 -21.2985 60.0704
CA 6.52812 -3.13385 85.8677
CA 17.2479 -8.0707 91.2508
CA 5.16034 9.56578 39.6369
CA 39.2302 -32.0254 52.7135
CA 5.4444 10.4498 49.1602
CA 5.53073 -10.1772 84.6561
CA 14.076 14.3404 74.3965
CA 6.00549 14.6258 74.6762
CA 11.5812 21.0166 51.8512
CA 11.0506 4.62116 43.4826
CA 11.2742 19.2592 74.946
CA 11.4062 3.23431 71.3206
CA 16.6982 16.119 49.8498
CA 15.3527 12.5322 34.5607
CA 1.76729 19.9406 32.5265
CA 3.158 7.16246 54.0732
CA -7.79195 6.91845 43.9292
CA 10.7581 15.665 30.8502
CA 9.86247 5.16 70.7012
CA 1.13989 -1.97109 53.6986
CA 12.2506 -8.03129 37.5447
CA 19.7664 4.28987 40.6178
CA 2.47827 -13.0662 46.0047
CA -16.4982 7.23401 55.2283
CA -2.2532 21.4235 31.2016
CA 14.8121 19.0557 33.974
CA 4.84193 -3.63245 84.7341
CA -14.1718 -19.945 42.7165
CA 0.681027 21.5943 52.5391
CA 39.6019 -16.8115 51.4962
CA 19.7229 -29.346 52.6038
CA 21.1736 0.41072 47.3143
CA 11.6026 -9.838 85.9362
CA 18.068 -10.7115 42.6673
CA 7.26396 -6.79735 92.2075
CA -10.9813 -20.5928 42.197
CA 6.67799 21.3072 36.7492
CA 10.1957 -9.18502 91.0641
CA 0.918997 6.23111 72.5292
CA 4.0585 15.5387 72.1727
CA -8.43111 9.05018 44.5599
CA -8.43431 3.31563 44.9762
CA 30.9021 -8.99054 46.6542
CA 23.3128 10.3651 41.5064
CA 13.4972 9.44494 52.9818
CA 9.19544 17.1279 48.5567
CA 11.2179 8.17789 62.947
CA 4.79353 2.9659 79.4816
CA 7.9654 15.3637 69.4305
CA 1.87392 -4.57374 44.7167
CA -7.66742 2.21038 39.8961
CA -20.4095 -15.9642 21.1685
CA 2.50585 1.86444 51.3946
CA 5.18845 9.50948 63.3666
CA 20.3308 -2.04494 84.8045
CA -8.94047 11.4373 42.8045
CA -4.78692 29.7964 61.47
CA 30.7709 -24.6581 49.2648
CA -3.64158 29.2763 48.7223
CA 5.63885 22.6923 50.8917
CA 5.89893 3.6936 50.0377
CA 15.1739 -9.93587 90.1818
CA 16.5309 -3.91174 70.9703
CA 14.1046 6.61007 55.296
CA 27.2861 -18.1061 54.5019
CA -9.53208 -6.73713 71.5991
CA -7.15663 32.4618 47.8118
CA 19.0158 -26.7116 51.7391
CA 6.58697 -1.13496 80.8211
CA 7.29574 25.1135 85.8159
CA 27.4047 -12.3529 43.4779
CA 9.72136 11.8652 35.9152
CA 19.1544 -3.92985 50.2771
CA 4.00963 3.67773 86.579
CA 14.7325 -7.45944 39.0255
CA 13.0436 18.0779 29.4135
CA -6.75292 -0.48012 46.3342
CA 6.393 19.3378 30.2111
CA -6.42774 0.292327 44.5035
CA 17.7709 -16.8242 48.8213
CA 26.409 -5.03659 46.9464
CA -10.3746 28.3816 50.3818
CA -1.00144 21.2853 79.3915
CA -15.3394 5.53686 48.9511
CA -3.38027 4.5037 59.136
CA 1.53998 14.6758 33.4911
CA 9.05251 -4.79898 41.2189
CA 31.7824 -25.262 52.207
CA 9.16413 8.48025 79.2911
CA 16.3351 -26.8668 52.6852
CA -4.9022 1.98726 41.5701
CA 21.3591 -11.2902 53.6445
CA 8.8987 -4.79007 50.9327
CA -7.66225 11.3437 71.1685
CA 16.8235 -23.554 59.2046
CA 10.7284 -3.21122 83.4642
CA 13.5974 4.01491 51.7315
CA -35.1998 0.311004 61.2068
CA 4.96386 4.20213 82.9435
CA -5.40786 33.0999 47.101
CA 19.8957 -8.88063 89.0893
CA 1.31918 -2.69026 78.6561
CA 12.6212 8.95059 46.0091
CA 5.5272 11.0631 56.0898
CA 4.6947 3.42064 58.756
CA 8.35533 11.6177 76.692
CA 13.0277 8.51495 16.4817
CA -10.3518 29.9431 47.4558
CA 10.8478 19.8973 30.0586
CA 9.57494 4.64009 20.8276
CA 9.05284 -8.28919 48.3175
CA 13.4282 -4.38258 90.1654
CA 15.536 3.38279 72.8065
CA 3.82258 0.444689 82.9299
CA 30.0418 -15.6787 55.5018
CA 3.27798 6.43945 62.8215
CA 25.7933 -20.462 43.0233
CA 35.4675 -16.2304 49.6068
CA 6.75527 2.36582 65.3529
CA 16.527 -8.65717 45.9467
CA 8.91646 5.19958 68.6439
CA 16.888 4.54847 71.4928
CA 6.47389 3.95368 79.2832
CA 11.0236 9.5151 50.6148
CA 17.2709 2.93707 73.4873
CA 19.2225 -7.14268 41.6491
CA -8.7149 1.67619 43.9691
CA 20.631 -21.5767 50.1941
CA 9.30974 2.01002 47.8238
CA 8.99009 14.0039 64.3421
CA 34.9326 -10.922 52.7362
CA 18.3291 11.63 73.3487
CA 2.85437 7.03418 49.4201
CA 1.3041 19.6582 29.4959
CA 10.7015 -3.09516 91.6392
CA 18.8666 9.73617 40.0924
CA 14.7742 10.0433 75.886
CA 24.2349 -28.9811 45.2022
CA 11.4279 6.58263 49.5955
CA -11.0786 37.754 49.8792
CA 10.5421 11.0328 62.8281
CA 2.56038 5.00196 54.245
CA -18.8971 18.018 59.0589
CA 10.7619 13.8313 72.2663
CA 4.78876 7.73616 66.2771
CA 9.07435 6.38884 80.4217
CA -16.9667 10.0615 72.0488
CA -0.386902 1.28034 50.4039
CA 7.66138 -5.98756 83.0056
CA 9.66598 10.7758 52.7234
CA 3.77947 4.86621 78.7669
CA 14.7281 -22.306 58.934
CA 7.14313 13.3788 67.7841
CA 3.62461 -9.32813 50.6346
CA 22.1005 -31.3331 50.4487
CA 8.91424 -5.71065 79.8807
CA 2.77028 2.02627 86.5877
CA 9.9752 8.2645 40.1281
CA 23.71 -22.653 60.2389
CA 15.0178 2.00187 86.5929
CA 4.7437 -4.54999 41.2793
CA 5.48631 15.2418 69.9326
CA -0.781703 -33.0784 57.8091
CA 24.3645 -4.78248 50.9779
CA 11.1359 -32.1037 53.4562
CA 11.4369 0.13395 86.1947
CA -1.8015 -6.58926 48.9045
CA 7.62089 15.8777 53.749
CA 14.8923 -2.38067 50.8562
CA -11.6283 -2.80981 82.3158
CA 3.78872 16.802 34.3607
CA 7.53994 -10.2159 48.9341
CA 7.53401 24.8963 89.0566
CA 3.85222 11.6207 81.9492
CA 9.73014 12.2654 39.7342
CA 13.1392 17.0276 73.2142
CA 29.042 11.0415 35.3593
CA 16.1861 -4.1326 88.9019
CA 13.3941 4.84272 73.9531
CA -22.8487 19.3382 55.2131
CA -0.121175 15.7839 83.3337
CA 3.29108 -5.01283 51.1221
CA 10.1212 8.09256 19.2854
CA 11.019 16.8845 52.8659
CA 17.1029 -20.6469 63.0548
CA 21.931 -11.7377 44.236
CA 2.10782 -1.72439 58.7266
CA 4.56215 8.84225 80.7624
CA 4.02212 9.13468 49.0968
CA 1.28188 7.74615 57.4689
CA -18.0122 -18.0275 23.3227
CA 9.6069 9.87291 19.0694
CA 18.2201 -19.9661 58.4326
CA 6.07887 16.6355 62.1952
CA -0.149257 -41.125 51.7249
CA 14.892 -12.7764 86.5954
CA 4.47888 11.1722 80.1017
CA -11.6469 9.66696 47.972
CA 8.30745 21.982 27.0129
CA 4.86403 -6.18445 49.8222
CA 20.8527 4.20679 70.621
CA -0.332127 -15.0151 38.4289
CA 31.1651 -17.8852 52.3951
CA 10.8806 17.8407 83.0345
CA 11.3505 18.1126 27.3019
CA 0.139493 19.7312 55.275
CA 20.9865 -21.8547 52.605
CA 4.71379 19.838 30.9487
CA 11.0691 4.26921 50.3538
CA 8.35418 16.2424 77.0372
CA 26.7138 -17.5605 52.6971
CA 40.8348 -21.1506 55.0803
CA 19.6202 4.71197 45.3514
CA 12.0127 -4.98161 88.7075
CA 4.88481 16.86 67.1219
CA 11.2232 8.54871 77.9937
CA 3.33612 16.1273 69.6135
CA 12.3298 -10.4112 87.6533
CA -2.5522 -5.26974 44.6493
CA -9.34521 4.99214 46.6637
CA -1.05848 6.2246 88.9102
CA 5.89296 -7.10121 82.4523
CA -2.68346 6.26399 54.3188
CA -0.945908 -8.59513 44.3583
CA 14.0891 3.6659 87.6026
CA 9.41615 8.2531 59.5394
CA -7.77604 7.84515 66.2359
CA 7.36191 -32.409 78.7226
CA 20.8004 -7.56304 54.4914
CA 4.47042 3.76158 70.2853
CA 13.7369 -7.1492 85.3969
CA 13.1055 1.35752 49.4123
CA 1.61287 4.34926 48.4509
CA 11.5219 8.54974 80.9682
CA 8.34113 22.2439 51.345
CA 12.9577 -24.641 62.3858
CA 16.4991 -2.33387 82.4008
CA -2.6024 11.6457 71.1559
CA 19.8918 5.12286 71.8663
CA -2.97366 -5.08152 49.0231
CA 1.30517 13.9678 35.4819
CA 6.11378 17.2168 78.4171
CA -4.19513 13.4498 69.0902
CA 15.3109 -0.985109 54.9601
CA -2.01822 27.5731 51.4788
CA 12.9721 -12.5257 88.7885
CA 8.14574 19.0478 52.0816
CA 14.7932 -3.26346 48.6739
CA 30.8661 -15.0186 44.1068
CA 7.72815 21.5476 52.9124
CA -35.0355 2.33117 60.9165
CA 11.9135 11.0311 64.327
CA -10.3117 38.3775 51.4914
CA 9.71983 25.4535 51.765
CA 6.59005 -11.0631 85.9917
CA 9.79364 12.8151 75.1787
CA 20.3994 -4.96844 41.3255
CA 19.7186 -6.67259 71.8135
CA 26.8412 -21.5043 51.6658
CA 3.54677 9.19746 60.9453
CA -6.44701 -9.05836 47.2079
CA 25.2745 -31.1801 46.5152
CA -22.4062 24.9515 67.3692
CA 20.9619 -16.6602 56.3658
CA 7.35698 14.9109 37.9408
CA -9.70471 31.141 50.3636
CA -11.6017 29.3892 48.9564
CA 13.1356 12.334 73.3462
CA 2.61303 13.9389 83.0255
CA -8.29382 28.6372 50.4771
