489

CA 15.0183 -7.61025 57.9269
CA 8.88261 4.45662 9.666
CA 17.4769 -0.110753 69.403
CA 19.1894 -11.7616 51.0076
CA 17.8745 0.5669 25.2054
CA 40.4512 -24.8785 51.4656
CA 38.0616 -20.5313 56.0024
CA 10.7681 -18.2644 56.0004
CA 35.8594 -28.3919 51.6945
CA 25.7266 -0.213308 60.6791
CA 41.2607 -9.44909 55.5527
CA 13.5022 -1.63708 22.3447
CA 30.6302 -2.57638 40.1344
CA -7.24795 30.8932 18.7524
CA 25.2371 -30.9255 74.484
CA 42.4852 -7.97225 47.2743
CA 12.8583 1.09153 24.2148
CA 32.4922 8.03537 50.5287
CA 6.31596 -9.4604 65.0316
CA 5.21046 -0.172669 57.7879
CA 8.3058 19.3322 16.5678
CA 18.8602 -23.577 49.4698
CA 44.6959 -16.2969 65.1645
CA 28.2062 -17.5479 48.8318
CA -13.7389 29.5955 18.3819
CA 16.7528 -2.53347 17.0792
CA 33.8782 -0.667119 1.61816
CA 25.1997 -5.27399 71.8317
CA 11.3249 14.7346 15.4772
CA 27.0838 0.521754 50.4933
CA 3.70757 -3.65741 62.0989
CA 15.7172 -22.0458 49.6392
CA 5.161 19.2444 19.4769
CA 19.2187 -2.57537 36.4341
CA 16.3718 -15.6341 47.3787
CA 8.12295 34.4289 15.5445
CA 9.52313 -16.6364 59.1682
CA 20.8084 -2.87411 16.4641
CA 44.3684 -7.04454 63.333
CA 39.439 -10.2596 42.8222
CA 23.6177 -13.8258 41.4818
CA 34.5956 -7.5782 83.9464
CA 17.3741 -12.7348 41.4312
CA 29.3319 -2.39422 56.3302
CA 37.5506 -26.0778 70.5545
CA 37.8558 -11.9797 90.4934
CA 18.4659 -28.7098 52.0625
CA 21.1701 -4.78653 41.9043
CA 22.1749 -29.3165 37.5385
CA 5.38509 31.1403 14.9667
CA 11.4708 -20.5921 58.9408
CA 33.0166 -29.812 70.9815
CA 26.5574 6.12835 53.2717
CA 19.8393 -18.7172 65.5096
CA 5.28461 20.8163 15.8925
CA 22.4498 -25.436 76.9828
CA 45.977 -7.61413 57.6632
CA 27.3711 -4.2024 36.6918
CA 34.8142 -16.0331 90.6513
CA 26.7597 -26.2108 57.2512
CA 12.1629 -24.0106 52.6387
CA 23.0046 -16.3968 50.3031
CA 7.55553 17.1929 10.1122
CA 28.2717 -21.8037 90.0256
CA 41.1012 -4.22038 38.6145
CA 36.1639 -15.2698 53.7165
CA 13.7923 -16.612 39.3115
CA 35.5419 -2.19887 85.7283
CA 12.0541 -15.65 47.7483
CA 0.814646 24.0832 19.2346
CA 24.0414 -2.5465 67.6626
CA 17.7583 -4.99257 56.8944
CA 21.9402 2.49177 15.9869
CA 14.3531 -35.623 48.5899
CA 14.5864 6.59225 15.0071
CA 40.5679 -24.6852 53.433
CA 22.3815 -13.5091 46.242
CA 9.51277 -15.8538 5.51404
CA 30.0793 1.18116 1.65879
CA 38.7585 -16.5674 83.4755
CA 21.9691 -1.41176 2.84811
CA 38.0402 -12.4566 58.0801
CA 31.5932 -16.7255 60.837
CA 24.0953 2.32896 45.1873
CA 38.5739 -28.6583 60.8293
CA 16.3849 -8.26083 43.6125
CA 44.8513 -15.6589 77.1106
CA 40.0016 -20.3976 73.7489
CA 22.7312 -1.71626 40.0055
CA 10.6846 -16.4417 42.4286
CA 20.7592 -20.5701 75.5459
CA 21.2653 -21.1323 38.4659
CA 27.0211 -16.713 86.0115
CA 36.6322 -17.0468 39.1109
CA 27.4084 1.83885 23.6456
CA 14.5977 -34.8353 46.1869
CA 19.032 -18.884 72.6165
CA 30.6227 0.407014 59.6085
CA 26.9531 -16.9253 58.9784
CA 36.8005 0.575562 47.8005
CA 14.3265 4.72522 11.5904
CA 13.5628 -32.5346 44.7718
CA 31.5212 -8.87449 74.2791
CA 28.2226 -24.5817 81.9158
CA 11.9939 -10.1319 45.3791
CA 50.4451 -1.1837 61.7643
CA 26.0582 -31.1262 76.9673
CA 12.0778 -18.142 61.0364
CA 42.9917 -7.62791 59.0199
CA 18.3343 -8.38106 54.0927
CA 4.27831 24.2561 17.7174
CA 23.777 -15.26 72.7226
CA 24.1702 -0.48413 53.7278
CA 36.6753 -25.1477 48.078
CA 5.57925 -9.77892 59.0076
CA 16.7823 -16.5195 63.3976
CA 43.1373 -5.36443 67.1879
CA 15.9633 -23.6045 56.0671
CA 24.1059 -13.3212 55.0095
CA 18.8327 -35.0756 45.4916
CA 15.7451 -0.315714 23.9907
CA 21.3432 4.06308 69.5241
CA 39.7159 -24.9599 75.2275
CA 49.0636 3.57797 66.2352
CA 17.4949 2.23359 59.9615
CA 22.1073 0.849244 18.6693
CA -11.2428 31.334 15.7637
CA 21.4306 -10.5962 42.8278
CA 26.6391 -8.14044 58.3169
CA 18.8729 -26.2359 46.8148
CA 30.855 -33.1459 67.5271
CA 37.5141 -10.0717 76.2664
CA 15.4398 0.538994 0.166778
CA 30.1228 -13.6616 49.4604
CA 34.5379 -6.03349 58.5642
CA 26.9266 -10.6124 57.6621
CA -13.0926 31.3972 19.4541
CA -11.318 28.0041 19.8114
CA 30.8345 1.96981 37.4073
CA 24.3498 1.40283 83.4888
CA 49.7628 -9.66053 69.1764
CA 7.66352 -11.8148 59.1194
CA 25.5003 -2.60024 26.6275
CA 39.3693 -3.7092 48.323
CA 11.1532 -0.348581 21.7847
CA 41.7494 -2.62161 66.3144
CA 41.8482 -12.0789 60.5838
CA 24.8797 -23.0574 60.96
CA 19.1289 -32.4639 38.2398
CA 23.2429 4.86396 70.1126
CA 27.5105 -7.87419 55.6066
CA 40.3781 -0.349203 55.7114
CA 20.6305 -3.61333 20.8087
CA 45.2833 -15.6454 70.5165
CA 29.9607 -7.64047 76.3726
CA 46.0894 -16.8956 61.7829
CA 22.9877 -3.6938 69.1619
CA 41.815 -7.51175 73.6639
CA 28.5832 -10.759 73.5713
CA 11.744 -14.4855 52.0869
CA 23.3493 -9.8342 53.7785
CA 27.3638 -26.6423 51.4306
CA 40.9148 -0.160595 70.6172
CA 7.51525 3.62499 8.24837
CA 27.8853 -14.2303 85.3477
CA 13.4434 -13.2589 4.82521
CA 30.3835 2.66775 59.4112
CA 18.8956 -20.5419 48.1622
CA 19.4383 -18.6677 48.4857
CA 30.6597 -8.39887 65.8853
CA 27.2812 -12.8709 88.7945
CA 22.4787 -5.34432 69.6833
CA 42.5249 -16.1006 81.0028
CA 17.8589 -4.39404 16.5508
CA 23.1879 -34.3171 80.5042
CA 19.0143 -19.6586 79.7926
CA 18.8003 -3.00275 63.8079
CA 28.1885 -11.5288 54.0353
CA 25.7376 -18.11 71.8486
CA 16.1866 -28.2797 50.7274
CA 35.4455 -4.23488 68.2525
CA 32.2676 -15.1856 84.5407
CA 28.6991 -8.21407 49.8963
CA 14.9281 -14.5451 2.4196
CA 20.2164 -5.38349 64.0631
CA 48.2816 -13.2221 71.6797
CA 21.3215 -15.7028 59.8472
CA 22.743 1.99364 61.4448
CA 26.376 -29.3342 77.365
CA 22.0793 -24.7607 36.6308
CA 24.1352 -24.0651 37.9681
CA 27.0233 -19.3627 65.9352
CA 28.5028 -1.08416 50.7643
CA 24.6088 -22.4157 47.4148
CA 35.8028 -22.7218 40.8961
CA 20.8324 -5.67828 51.0574
CA 17.4417 -6.81807 61.446
CA 8.84283 -9.53657 2.26629
CA 39.4767 -9.08313 87.9074
CA 29.7386 -21.6292 57.963
CA 34.6489 -30.0452 57.9332
CA 30.7635 -26.9559 48.7638
CA 16.2332 -18.059 39.288
CA 22.5878 -24.4333 50.6813
CA 37.4005 -7.61114 43.7561
CA 29.5228 0.475747 70.5112
CA 20.4532 -30.535 76.8673
CA 35.9083 -9.7188 45.77
CA 28.474 -10.3838 87.427
CA 28.8431 -22.151 54.8035
CA 12.2197 -3.34239 26.3177
CA 19.408 -16.3708 3.67511
CA -11.8236 35.0328 17.6853
CA 40.1411 -18.3937 81.9284
CA 9.77397 -3.42601 51.7818
CA 29.2688 -3.38096 37.6476
CA 37.3539 -23.8192 62.0188
CA 48.202 -21.9222 73.5925
CA 5.62519 19.3463 17.1731
CA 13.4851 0.570983 11.8867
CA 28.7917 -9.58228 54.6582
CA 37.3695 -1.29289 71.0481
CA 28.138 -13.2732 81.9613
CA 36.281 -21.9905 91.0722
CA 32.4698 -3.97611 66.6594
CA 20.9512 -27.1871 40.9732
CA 4.98201 -6.62035 58.373
CA 11.2995 -12.7953 0.0769042
CA 35.4366 3.5649 50.5051
CA 19.2406 -14.2918 61.337
CA 31.5967 5.77323 46.5255
CA 35.171 -4.03452 74.4051
CA 38.1973 -28.4148 55.8581
CA 40.296 -8.56526 36.7011
CA 36.1015 -5.93398 48.0843
CA 34.6061 4.26122 62.9547
CA 41.6787 -17.1367 64.0144
CA 21.3136 -7.02648 35.4512
CA 26.6659 -13.5815 58.4733
CA 17.275 -29.9163 36.8054
CA 44.271 -9.35075 51.8455
CA 35.3852 -18.0349 88.4556
CA 13.7577 5.25433 9.81962
CA 36.2676 -27.7406 62.6281
CA 33.5094 -31.1508 75.2005
CA 11.0807 -12.7592 5.07441
CA 38.9263 2.92265 64.7217
CA 35.2472 -28.4988 49.6977
CA 26.8041 -29.3289 61.8767
CA 29.3432 -10.1713 84.4988
CA 27.5256 -7.77106 90.4957
CA 22.1349 -3.5431 52.1879
CA 14.9415 -23.6288 39.1518
CA 28.953 -21.6131 48.9352
CA 16.1271 5.70039 59.0908
CA 37.2637 -14.3022 72.7677
CA 36.8311 -3.63491 52.7658
CA 21.2905 4.16529 71.6673
CA 46.8726 -27.6775 64.7547
CA 21.9511 -17.7076 56.8425
CA 5.46889 -14.9108 69.6119
CA 16.5542 -0.110872 2.35084
CA 30.7567 -5.64295 7.93728
CA 21.5308 3.39868 56.3861
CA 30.9978 -19.5642 93.2811
CA 13.7346 -17.5436 47.5581
CA 27.543 -8.18248 34.5998
CA 37.1541 -17.4268 82.2545
CA 21.1757 -34.4351 47.8818
CA 21.8037 -16.2813 67.2991
CA 18.6697 1.27351 58.3798
CA 37.8162 -11.1974 52.0708
CA 33.4073 -25.2529 45.6909
CA 32.1311 -6.98288 78.6686
CA 37.089 -21.2612 72.9828
CA 49.7403 2.20535 61.838
CA 49.74 -30.0263 66.0892
CA 35.8575 -3.54589 57.854
CA 18.9835 -24.219 40.5875
CA 29.0166 -21.7056 64.8179
CA 19.4539 -22.4921 60.4832
CA 1.30138 28.7537 17.2615
CA 33.7395 -7.30724 65.0659
CA 50.4601 -18.6491 75.8311
CA 22.6576 -6.75548 90.8846
CA 34.3427 -20.3999 54.0204
CA 30.4401 -24.6572 89.7356
CA 42.3393 -25.5926 60.1821
CA 39.9327 -26.5471 65.7947
CA 38.9823 -17.1623 69.1295
CA 43.7215 -27.1032 63.7545
CA 36.9369 -17.0094 68.7808
CA 17.8708 -3.41413 60.5838
CA 32.7049 -10.9672 68.7783
CA 7.42128 -10.8773 62.4747
CA 19.0323 -25.3734 49.5437
CA 25.6516 -20.6671 68.5955
CA 30.0873 -4.00922 5.34447
CA 36.4318 -15.9799 87.5759
CA 30.4933 -17.2216 79.9891
CA 36.3481 -12.9353 59.6649
CA 36.7575 -19.184 45.0738
CA 25.4879 -16.9027 44.1929
CA 5.35857 -12.9445 2.80592
CA 34.1202 -21.2887 60.6463
CA 1.7788 -8.66794 61.9007
CA 29.7108 -23.622 75.6939
CA 25.4876 -12.3174 89.6723
CA 20.8505 -22.8154 42.3342
CA 8.24803 -9.28159 54.6925
CA 35.2364 -21.3954 74.0378
CA 28.1023 0.69779 39.3652
CA 24.0988 -28.0659 79.9515
CA 23.9113 7.65207 44.6926
CA 34.5693 -22.8427 90.2918
CA 15.3503 -5.74992 46.6729
CA 20.0602 -3.09956 7.16793
CA 13.7807 -3.01654 44.559
CA 47.143 -20.9625 68.7668
CA 14.4905 -9.41842 2.09188
CA 35.3254 -19.2351 81.956
CA 36.776 -21.6619 44.0554
CA 32.5314 -2.5858 68.0949
CA 17.7405 0.878814 13.1306
CA 28.3846 1.60578 63.6103
CA 40.5965 -13.7934 80.1294
CA 34.2298 -2.10064 57.733
CA 28.8236 -6.78664 70.4129
CA 14.1389 -24.7704 47.1738
CA 20.0296 -30.8939 40.7124
CA 51.8965 0.816296 60.2505
CA 17.3084 5.53972 61.0815
CA 50.0564 -17.3326 77.0173
CA 19.4108 -20.6126 60.7174
CA 31.4711 7.44986 45.73
CA 53.4296 -18.0756 66.4665
CA 19.2201 -3.64179 49.4836
CA 40.709 -26.5013 78.8088
CA 34.9633 -21.2399 41.9915
CA 31.7025 -6.28832 45.7397
CA 19.6032 -16.7401 48.8637
CA 8.33862 17.0944 14.4552
CA 49.9719 -22.6337 58.7409
CA 45.0314 -5.42786 65.0983
CA 44.2095 -14.7591 82.0162
CA 29.4196 -15.365 61.4918
CA 30.2353 -15.3334 59.0124
CA 45.8755 -12.1059 56.7178
CA 1.0602 28.1676 19.2834
CA 13.8201 -18.4073 62.6951
CA 25.448 -3.02799 70.2245
CA 12.629 -17.9628 56.0474
CA 10.2124 -8.67752 59.7458
CA 36.9506 -26.0456 80.462
CA -10.709 30.1923 18.1947
CA 40.8962 -10.5626 79.9801
CA 41.7017 -23.6446 78.1623
CA 27.8064 5.41751 50.8116
CA 23.9844 -1.79884 84.4404
CA 24.3947 -22.4605 79.0544
CA 31.5122 -13.2259 88.7367
CA 25.2625 -23.3081 55.1552
CA 32.9574 -15.9981 39.5937
CA 36.7426 3.02523 48.5359
CA 2.19148 24.9291 18.3972
CA 9.41074 -0.763028 53.8538
CA 7.09512 -13.0617 4.94856
CA -13.5931 27.1997 15.9905
CA 18.4983 4.24203 17.7487
CA 16.5429 -22.0608 57.8601
CA 48.0589 -18.722 61.812
CA 18.4905 4.51 72.9346
CA 23.0987 -21.5748 88.2683
CA 27.6094 -8.52096 64.3205
CA 3.61355 -11.6325 2.64797
CA 32.0406 -29.1034 48.3954
CA 34.4201 -8.77454 54.4188
CA 35.9024 -18.7873 59.509
CA 28.642 -28.3269 72.6397
CA 20.491 -10.211 39.8827
CA 7.16599 17.109 16.5431
CA 23.4565 -17.7282 74.2423
CA 19.0238 -29.3062 76.6612
CA 36.1371 -20.3063 85.647
CA 45.6488 -26.714 63.7019
CA 5.23698 27.3529 15.2712
CA 24.486 -20.7788 64.9592
CA 32.1573 -17.3674 49.5848
CA 14.2356 -4.3732 -0.404737
CA 51.3254 -17.2021 64.3819
CA 16.0214 -4.73942 15.3702
CA 47.6119 -22.7018 62.9289
CA 39.5619 -23.6836 45.374
CA 13.1634 -27.4506 50.0806
CA 23.0559 -18.3744 76.5468
CA 32.5312 -25.3018 72.1179
CA 11.328 -12.4599 48.9169
CA 34.786 -26.4641 68.7134
CA 42.7215 2.55944 52.7947
CA 24.1048 7.73474 40.2501
CA 23.9413 -21.0937 51.0204
CA 32.4629 -4.7414 43.382
CA 17.6223 -3.18137 42.6809
CA 29.621 9.35378 50.7999
CA 15.193 -28.6392 41.1143
CA 37.9495 1.58915 65.4694
CA 46.8589 -25.0355 59.656
CA 29.364 -9.80311 37.2176
CA 32.7027 -2.91767 71.6746
CA 19.2445 -2.80363 68.6169
CA 30.3162 -22.9389 88.2441
CA 31.1765 -27.6968 80.5215
CA -3.19398 28.8563 15.7951
CA 36.054 -25.0687 42.4303
CA 31.447 -18.4276 90.9219
CA -16.3323 29.9937 17.5733
CA -7.87409 26.6086 15.1406
CA 21.8773 -4.93131 31.533
CA 19.7268 -2.5563 10.3827
CA -10.8123 24.2632 13.6586
CA 17.1254 -7.7472 59.8757
CA 44.1676 -4.19672 69.1888
CA 32.8512 -24.0677 85.5332
CA 1.25038 14.8739 14.9925
CA 20.7533 -1.08654 -1.68171
CA 44.814 -19.4712 74.6986
CA 24.8396 -0.496482 58.7777
CA -12.6461 25.272 19.2512
CA 34.4146 -9.71982 87.276
CA 24.2265 -20.0901 39.3476
CA 47.7171 -18.8349 78.8504
CA 18.0499 -30.969 51.0099
CA 27.0388 -6.78412 30.1603
CA 37.0597 -25.2449 64.4625
CA 31.5549 -20.0338 74.9827
CA 13.0036 11.1763 18.1327
CA 24.8906 -18.7922 76.5096
CA 27.3519 -21.4967 93.3066
CA 15.641 -4.75771 43.2371
CA 16.7558 -2.79879 37.9952
CA 44.1358 -2.33879 60.9106
CA 35.4388 -26.7298 54.3026
CA 22.6702 -5.87312 87.7723
CA 25.3586 6.57984 48.5229
CA 36.0236 -3.26914 43.0075
CA 7.69349 -5.43712 61.8288
CA 39.8496 -7.82865 72.0766
CA 44.0346 -10.0184 68.1094
CA 26.9552 -24.5369 54.141
CA 49.9357 -16.5656 71.3404
CA 22.0965 -16.0437 41.866
CA 33.0046 -31.2222 58.6257
CA 39.7534 -30.6533 53.7589
CA 27.7305 -24.3649 65.0829
CA 27.9248 -5.1996 42.2899
CA 13.6369 -15.6819 52.4381
CA 31.8238 -3.47647 64.9528
CA 29.9144 -3.04345 2.26575
CA 19.5725 -4.6131 25.0743
CA 24.0995 -8.94811 95.1267
CA 32.0064 -22.1161 89.4484
CA 21.599 -1.05068 18.1289
CA 35.1968 -10.0589 75.1918
CA 16.755 5.45335 15.5244
CA 17.5621 -29.4827 34.1121
CA 4.6955 -5.34228 62.7749
CA 25.2663 -2.13108 49.7619
CA 32.935 -12.1855 50.5561
CA 31.7674 -0.64393 60.6457
CA 46.8303 0.769485 62.6408
CA 45.1264 -24.4519 60.0961
CA 26.4071 5.03706 48.8227
CA 26.7883 -0.520332 40.3411
CA 30.1214 -13.5246 81.8572
CA 13.8531 -1.66104 13.9402
CA 13.6368 -16.4373 44.0545
CA 12.5412 -8.3235 44.8288
CA 25.0205 -8.38493 71.0667
CA 18.6723 0.551093 17.7418
CA 32.2879 -21.6532 77.983
CA 2.99734 17.3335 19.4634
CA 52.0664 -12.9598 70.8388
CA 17.8913 -10.7693 48.1023
CA 35.3614 -14.4368 49.5114
CA 6.82093 -12.1904 68.2633
CA 27.5073 -0.661499 1.90349
CA 40.5138 -7.34328 41.0991
CA 16.5452 -17.9179 55.4622
CA 24.7253 -2.89556 23.4629
