489

CA 32.3354 -6.50682 56.573
CA 9.02333 5.01572 12.7408
CA 18.271 -23.6311 42.5113
CA 22.8557 -2.13054 50.7049
CA 17.8745 0.5669 25.2054
CA 49.8062 -17.6376 58.2362
CA 27.7644 -9.56077 79.9261
CA 22.6847 -14.74 88.6177
CA 9.42793 -12.0474 62.446
CA 46.5938 -25.0802 59.7082
CA 35.9531 -15.1272 70.7212
CA 32.8069 -21.5651 64.358
CA 14.8798 0.953983 45.1801
CA -7.24795 30.8932 18.7524
CA 18.5768 4.57786 54.582
CA 34.6369 -12.859 40.202
CA 25.5344 3.8158 60.868
CA 45.6198 -13.5577 54.0193
CA 32.3763 -19.0445 37.2567
CA 33.9638 7.96245 50.7112
CA 18.5737 -7.77637 62.1955
CA 21.7891 -30.6532 39.2912
CA 28.5443 -30.3259 55.5997
CA 28.2062 -17.5479 48.8318
CA -13.7389 29.5955 18.3819
CA 16.7528 -2.53347 17.0792
CA 30.5651 -29.2372 78.8998
CA 27.5113 2.00368 42.8915
CA 11.3249 14.7346 15.4772
CA 34.5642 -27.3215 67.9818
CA 17.0466 -23.9485 57.6018
CA 39.8366 -27.064 56.3999
CA 5.161 19.2444 19.4769
CA 37.9712 -6.66111 33.233
CA 30.1588 -6.40922 50.805
CA -5.65801 32.0837 19.0189
CA 35.3191 -18.2057 70.1131
CA 15.7393 -4.44991 4.96228
CA 35.115 -6.7097 53.8773
CA 35.2892 -12.2009 84.1971
CA 38.9753 -24.2949 53.8845
CA 11.4708 -4.2531 56.8439
CA 41.0568 -20.4607 87.7497
CA 34.058 -14.3091 56.4557
CA 37.5506 -26.0778 70.5545
CA 37.152 -11.4805 91.1443
CA 30.3101 -25.8614 71.2606
CA 14.0569 -26.1088 55.8008
CA 8.12122 -13.9977 2.40261
CA 5.38509 31.1403 14.9667
CA 23.2275 -8.44027 80.8417
CA 19.6199 -9.5874 94.5658
CA 26.2518 -9.77535 39.7528
CA 19.8393 -18.7172 65.5096
CA 5.28461 20.8163 15.8925
CA 24.0942 -26.8353 43.7324
CA 19.6301 -21.7964 58.4525
CA 27.3711 -4.2024 36.6918
CA 41.6948 -8.26889 45.6692
CA 26.7597 -26.2108 57.2512
CA 28.0357 -22.6296 78.5477
CA 29.2014 -22.6974 63.2083
CA 43.4233 -9.03609 76.1171
CA 36.2509 -9.1134 77.9921
CA 30.3024 6.99007 50.6902
CA 36.6763 -8.18206 37.1898
CA 18.4291 -27.6227 42.91
CA 28.1465 -3.01669 67.4798
CA 16.3819 -19.9808 39.7955
CA 0.814646 24.0832 19.2346
CA 27.0184 -32.2587 84.0634
CA 16.953 -7.74329 50.3668
CA 7.44396 15.3668 17.5215
CA 20.0332 -27.3145 37.4331
CA 14.5864 6.59225 15.0071
CA 44.2039 -17.7837 59.0185
CA 22.3815 -13.5091 46.242
CA 9.16106 -16.8251 2.11318
CA 30.0793 1.18116 1.65879
CA 22.0686 -11.2456 36.18
CA 21.9691 -1.41176 2.84811
CA 40.4404 -8.70692 66.6704
CA 31.5932 -16.7255 60.837
CA 28.8892 -2.82478 25.8091
CA 38.5739 -28.6583 60.8293
CA 16.0874 -27.297 46.8573
CA 44.8513 -15.6589 77.1106
CA 34.9635 -11.7588 91.0677
CA 36.7216 -15.136 44.4803
CA 27.6894 -31.0047 82.3942
CA 45.0526 -9.91413 55.5688
CA 21.2653 -21.1323 38.4659
CA 31.0171 3.71168 43.9305
CA 11.3108 10.911 12.0313
CA 27.4084 1.83885 23.6456
CA 34.3852 -18.5545 48.5737
CA 23.1028 -11.4913 90.1636
CA 29.7363 -26.2274 82.1367
CA 35.9956 -5.74813 41.7994
CA 6.84682 -11.9141 47.0409
CA 14.3265 4.72522 11.5904
CA 16.9955 5.36614 49.996
CA 39.9798 -7.53988 60.1519
CA 28.2226 -24.5817 81.9158
CA 17.502 -24.629 51.0869
CA 11.7537 6.61049 13.2358
CA 42.2293 -23.4021 71.8892
CA 19.9549 -2.29578 21.5289
CA 41.7859 -25.3477 65.5537
CA 18.3343 -8.38106 54.0927
CA 3.49525 28.6922 18.2946
CA 34.1355 -17.3672 68.9233
CA 10.6581 -29.8317 47.9878
CA 36.6753 -25.1477 48.078
CA 5.57925 -9.77892 59.0076
CA 45.1355 -9.08124 59.6198
CA 43.1373 -5.36443 67.1879
CA 18.5163 -23.4008 61.6725
CA 9.96536 -12.6126 44.7311
CA 41.1013 -5.64492 39.2327
CA 8.64623 -21.9576 58.4929
CA 35.2057 -7.39247 41.255
CA 25.9502 -26.0801 38.2854
CA 26.8086 -14.1393 50.137
CA 12.5275 -12.5821 9.22481
CA 16.6119 6.92291 18.7342
CA 3.65503 23.3015 14.772
CA 21.4306 -10.5962 42.8278
CA 26.6391 -8.14044 58.3169
CA 19.1379 -27.5642 50.513
CA 23.4932 -14.0214 58.0237
CA 30.1596 -24.4684 66.1631
CA 15.4398 0.538994 0.166778
CA 10.1262 -8.76703 45.3708
CA 41.0655 -17.4512 59.759
CA 39.3131 -23.0601 50.9829
CA -14.8989 25.5271 16.7314
CA -11.318 28.0041 19.8114
CA 45.6801 -12.7388 67.0007
CA -0.0611448 29.6821 19.5008
CA 8.25169 0.196929 57.8332
CA 24.3579 -2.04806 58.1436
CA 25.5003 -2.60024 26.6275
CA 38.0324 -24.1323 44.769
CA 25.2867 -29.3047 54.6993
CA 26.4061 -0.714734 60.2872
CA 42.2363 -4.44221 62.0839
CA 30.9274 -30.0482 75.0003
CA 28.0329 -7.35017 37.7269
CA 41.3724 -26.03 57.462
CA 24.257 -19.1189 48.3758
CA 21.8981 -30.1291 77.3863
CA 7.61127 -13.0136 45.3577
CA 36.3462 -20.8431 89.0653
CA 29.9607 -7.64047 76.3726
CA 30.7158 -5.56615 56.3758
CA 22.9877 -3.6938 69.1619
CA 19.8214 -18.6937 41.0358
CA 28.5832 -10.759 73.5713
CA 20.1147 -11.9264 86.7807
CA 23.3493 -9.8342 53.7785
CA 12.0174 -23.5898 55.3651
CA 36.8292 -20.2852 86.3261
CA 7.51525 3.62499 8.24837
CA 27.8853 -14.2303 85.3477
CA 13.4434 -13.2589 4.82521
CA 22.4529 -0.920579 4.75618
CA 42.2348 -8.21945 77.5602
CA 31.485 1.5008 63.0035
CA 45.733 1.14107 54.5569
CA 21.8354 -15.7091 86.6448
CA 22.4787 -5.34432 69.6833
CA 23.3252 2.87291 62.2157
CA 17.8589 -4.39404 16.5508
CA 23.1879 -34.3171 80.5042
CA 40.557 -9.11081 77.5826
CA 27.0219 -29.0307 71.7036
CA 44.2346 -15.8751 56.7876
CA 19.7419 -7.75995 86.7221
CA 24.0602 0.547853 13.3042
CA 37.0235 -17.4133 84.4509
CA 22.4325 -26.6546 49.8032
CA 33.5928 -21.0348 58.4726
CA 14.9281 -14.5451 2.4196
CA 13.1448 -5.08015 25.5276
CA 19.6935 -4.44078 49.0969
CA 28.6114 -19.6066 38.7007
CA 25.3048 2.96362 44.7739
CA 31.6828 -14.4046 82.7025
CA 20.6042 -2.38729 54.8587
CA 26.9493 -11.454 49.7749
CA 16.1396 -12.377 47.3376
CA 24.1235 -8.27978 63.3657
CA 42.6996 -11.8693 69.1061
CA 18.0657 -4.48631 7.11654
CA 22.5645 -1.49563 45.8897
CA 46.1963 -15.9987 62.0469
CA 12.7266 -12.0333 3.67511
CA 22.6848 -7.31983 70.962
CA 29.7386 -21.6292 57.963
CA 31.62 -20.4905 39.6387
CA 29.3981 0.0344663 74.9607
CA 16.2332 -18.059 39.288
CA 48.4393 -20.8055 63.4129
CA 22.831 -23.2051 82.0978
CA 24.4615 -5.45492 42.3363
CA 40.1752 -7.20623 52.4468
CA 49.2453 -12.7362 52.4247
CA 43.7652 -21.6323 78.9063
CA 43.9443 -24.0799 78.7676
CA 34.1137 -14.7727 68.3828
CA 28.6454 -12.5014 81.4729
CA -11.8236 35.0328 17.6853
CA 22.0432 -17.5039 72.4473
CA 31.9804 -25.3896 55.1686
CA 38.564 -11.3183 34.8886
CA 13.2203 0.332794 57.0432
CA 31.2743 -8.43513 35.0368
CA 5.62519 19.3463 17.1731
CA 12.7644 -14.2611 41.3003
CA 11.1431 -10.1004 58.889
CA 29.6549 -13.1378 69.3891
CA 14.3335 -12.543 54.9004
CA 36.281 -21.9905 91.0722
CA 32.4698 -3.97611 66.6594
CA 23.7741 4.19829 46.6071
CA 3.13461 21.8101 21.4098
CA 11.2995 -12.7953 0.0769042
CA 26.7604 -29.1623 33.6993
CA 19.2406 -14.2918 61.337
CA 8.42481 -2.38159 55.871
CA 32.6303 -20.0871 92.5079
CA 37.6861 -10.8053 46.3374
CA 20.6986 7.47782 44.5085
CA 12.6625 -0.42015 22.3905
CA 25.3408 -28.9149 74.981
CA 41.6787 -17.1367 64.0144
CA 30.319 -3.85871 71.0206
CA 34.0202 -13.3573 86.9947
CA 17.275 -29.9163 36.8054
CA 24.2843 -28.2679 39.5051
CA 6.27096 -12.2713 59.1103
CA 20.6552 -29.4338 42.5504
CA 29.9187 -26.8903 84.3917
CA 28.5948 -37.0712 86.8979
CA 2.5575 -12.0951 5.35108
CA 11.1607 13.1308 12.6354
CA 39.8754 -27.203 50.2199
CA 20.5132 -9.4508 57.1446
CA 11.3736 -15.374 62.3659
CA 17.6036 -10.913 56.7426
CA 31.567 -5.43482 51.363
CA 15.7726 -11.4758 45.569
CA 28.953 -21.6131 48.9352
CA 26.6408 -32.7429 79.6624
CA 35.3743 -5.56459 79.0356
CA 36.6416 -2.05263 51.5558
CA 26.7631 -23.2383 72.9387
CA 15.8245 0.778287 20.0975
CA 45.2295 -7.68404 66.5994
CA 46.4909 -16.9218 71.7856
CA 16.5542 -0.110872 2.35084
CA 31.6135 -3.78086 3.09979
CA 45.4513 -13.7236 74.8471
CA 12.9269 -31.7879 44.6143
CA 12.7452 -0.109215 58.8125
CA 27.543 -8.18248 34.5998
CA 37.1541 -17.4268 82.2545
CA 37.1867 -34.3616 53.8395
CA 21.8037 -16.2813 67.2991
CA 18.6697 1.27351 58.3798
CA 37.8162 -11.1974 52.0708
CA 27.5773 -22.7654 46.3261
CA 39.2136 -26.0976 52.5386
CA 14.9635 -11.0628 64.062
CA 14.3453 -9.64558 40.9789
CA 27.9468 -3.07603 3.95984
CA 35.8575 -3.54589 57.854
CA 11.6897 9.3127 19.4908
CA 49.0875 -16.156 49.2896
CA 11.1894 -21.0762 64.5285
CA 1.30138 28.7537 17.2615
CA 33.7395 -7.30724 65.0659
CA 40.4874 -9.82755 63.4487
CA 22.6576 -6.75548 90.8846
CA 26.1156 -10.4006 37.9103
CA 36.3986 -7.86221 42.746
CA 41.6005 -26.9515 62.1169
CA 39.9327 -26.5471 65.7947
CA 25.9626 -7.86288 90.6848
CA 36.5264 -16.6869 71.6112
CA 28.9178 -27.0848 50.1515
CA 29.3163 0.0231348 68.3591
CA 21.2731 -15.7036 56.9165
CA 33.1365 -11.117 51.1154
CA 46.3521 -18.7203 62.1747
CA 24.3894 -20.5039 56.5053
CA 13.0625 -4.464 14.5303
CA 36.4318 -15.9799 87.5759
CA 30.4933 -17.2216 79.9891
CA 36.3481 -12.9353 59.6649
CA 30.5885 -15.5684 70.3694
CA 25.4879 -16.9027 44.1929
CA 5.35857 -12.9445 2.80592
CA 45.9384 -11.7236 73.8068
CA 42.3258 -3.36574 49.6821
CA 18.7595 -11.551 59.8429
CA 48.8328 -11.9586 59.0992
CA 8.09943 -2.4793 58.4734
CA 19.5281 -12.1908 52.7508
CA 4.81982 -2.83006 59.0617
CA 41.2858 -6.5783 71.2355
CA 24.0988 -28.0659 79.9515
CA 18.5537 -17.8384 72.4566
CA 30.7115 -17.6828 39.9585
CA 13.2898 -2.59902 60.6267
CA 17.4567 3.91579 24.9645
CA 23.649 -1.93162 55.6167
CA 18.4455 -37.5074 79.8808
CA 14.4905 -9.41842 2.09188
CA 2.87033 -0.675513 59.1348
CA 36.776 -21.6619 44.0554
CA 13.1168 -31.4397 37.6255
CA 17.7405 0.878814 13.1306
CA 28.3846 1.60578 63.6103
CA 45.0307 -17.273 66.4513
CA 26.858 -36.7592 82.5518
CA 18.7429 -16.3109 74.5027
CA 12.7051 -9.74468 43.6007
CA 44.9071 -15.1506 83.026
CA 28.9869 -19.3806 40.5041
CA 20.5778 -1.86682 45.7209
CA 5.54987 -5.39063 59.8809
CA 16.4982 -21.7792 43.4089
CA 43.6633 -26.1138 69.6115
CA 29.7749 3.0517 47.4742
CA 26.0416 -13.4071 61.6429
CA 28.5661 -27.1593 69.59
CA 20.9774 -30.5534 44.0934
CA 31.7025 -6.28832 45.7397
CA 33.8108 -17.2766 71.9356
CA 22.9867 -6.30638 8.50114
CA 28.3305 4.0439 43.1814
CA 22.6457 -17.3751 76.9155
CA 13.5907 -22.2106 61.941
CA 6.55958 -13.8546 7.00357
CA 43.9387 -11.5377 83.1966
CA 45.1637 -12.6423 57.1212
CA 1.0602 28.1676 19.2834
CA 22.0663 -1.00512 58.3569
CA 35.7073 -3.93401 53.616
CA 12.629 -17.9628 56.0474
CA 16.9356 -0.0749703 62.1602
CA 25.6037 -29.6591 52.4266
CA -10.709 30.1923 18.1947
CA 28.356 -21.9117 87.4629
CA 21.1998 -22.7182 56.4258
CA 27.6013 -19.8757 74.7636
CA 7.83215 -3.13607 60.8485
CA 21.9396 2.86751 9.46632
CA 24.2518 -11.7539 84.8709
CA 39.3622 -20.9462 47.3949
CA 45.4317 -13.3054 52.1735
CA 8.43688 -24.6745 53.4735
CA 2.19148 24.9291 18.3972
CA 26.9008 -19.4128 40.1207
CA 19.0486 -17.7195 69.5023
CA -13.5931 27.1997 15.9905
CA 18.4983 4.24203 17.7487
CA 16.5429 -22.0608 57.8601
CA 25.7631 -3.46448 42.0964
CA 31.9833 -34.0574 56.6064
CA 45.2697 -9.06169 63.9834
CA 27.6094 -8.52096 64.3205
CA 39.8022 -5.48908 46.0176
CA 37.0514 -20.3366 48.6707
CA 42.9824 2.12585 50.4597
CA 35.9024 -18.7873 59.509
CA 28.642 -28.3269 72.6397
CA 19.4684 -2.63187 47.9837
CA 7.16599 17.109 16.5431
CA 17.8499 -8.10476 65.3316
CA 30.0937 -29.6639 52.5044
CA 40.0992 -22.069 72.1375
CA 40.1899 -7.48641 44.2281
CA 5.23698 27.3529 15.2712
CA 24.486 -20.7788 64.9592
CA 44.4757 -24.8324 63.9967
CA 14.2356 -4.3732 -0.404737
CA 19.7018 -21.2688 62.9997
CA 16.0214 -4.73942 15.3702
CA 24.8812 0.612801 45.9798
CA 28.5007 4.35129 64.2204
CA 13.1634 -27.4506 50.0806
CA 31.7407 -3.91312 50.2154
CA 26.7744 -21.1803 79.327
CA 42.1913 -6.44446 95.176
CA 39.8552 -10.5296 75.4098
CA 26.7206 -18.066 64.3318
CA 25.5144 -2.88767 64.2883
CA 32.1015 -15.5858 49.446
CA 28.6521 -30.2845 60.3535
CA 31.6206 -11.0062 68.5707
CA 40.8343 -25.1725 55.3389
CA 28.4086 -19.9614 47.314
CA 18.1933 -3.626 50.6667
CA 6.84905 -15.4255 61.8277
CA 24.462 -18.3573 63.4795
CA 24.8858 -28.1489 72.5046
CA 18.0624 -29.8807 42.6172
CA 31.5522 0.282719 70.2933
CA 8.57841 -20.0266 52.6269
CA -3.19398 28.8563 15.7951
CA 12.5552 -22.8813 44.7287
CA 31.447 -18.4276 90.9219
CA -16.3323 29.9937 17.5733
CA -7.87409 26.6086 15.1406
CA 35.83 -4.41224 46.073
CA 19.7268 -2.5563 10.3827
CA 16.5456 -26.4905 35.9134
CA 17.1842 -20.1391 72.8412
CA 19.2921 -9.73634 61.6061
CA 32.8512 -24.0677 85.5332
CA 1.25038 14.8739 14.9925
CA 20.7533 -1.08654 -1.68171
CA 33.7011 -21.7848 37.3972
CA 35.9282 -14.5847 57.2735
CA 1.88972 26.1593 16.3933
CA 30.8027 -20.8213 63.69
CA 28.5515 -3.53658 77.3602
CA 47.7171 -18.8349 78.8504
CA 21.9468 -20.5612 79.979
CA 27.0388 -6.78412 30.1603
CA 37.0597 -25.2449 64.4625
CA 24.9088 -0.640822 20.5283
CA 13.0036 11.1763 18.1327
CA 14.2719 -10.0445 51.3677
CA 27.3519 -21.4967 93.3066
CA 45.8847 -18.2895 72.8935
CA 39.1126 -13.241 84.6638
CA 44.1358 -2.33879 60.9106
CA 21.1408 -20.1262 41.5426
CA 22.6702 -5.87312 87.7723
CA 30.8613 -27.19 64.4664
CA 37.2433 -13.6257 75.9825
CA 40.0538 -7.96374 90.9644
CA 36.8678 -19.4351 42.5756
CA 44.0346 -10.0184 68.1094
CA 12.2302 -2.87694 1.80597
CA 49.9357 -16.5656 71.3404
CA 22.0965 -16.0437 41.866
CA 43.5403 -1.99015 47.356
CA 21.306 -6.91777 67.0973
CA 49.4106 -19.8986 71.1078
CA 22.3554 -13.1092 74.9902
CA 13.997 4.45688 48.6355
CA 31.8238 -3.47647 64.9528
CA -0.782694 -0.123301 61.8284
CA 19.5725 -4.6131 25.0743
CA 24.0995 -8.94811 95.1267
CA 21.4562 -18.2861 48.546
CA 21.599 -1.05068 18.1289
CA 35.1968 -10.0589 75.1918
CA 16.755 5.45335 15.5244
CA 26.6804 -9.84582 81.7932
CA 17.2051 -12.5305 38.5597
CA 44.5537 -13.2346 76.6805
CA 19.0953 -8.5393 73.0758
CA 48.4464 -8.99808 55.3353
CA 31.2033 -5.49094 71.2645
CA 31.3956 7.79247 41.7211
CA 10.7049 -27.757 48.4489
CA 21.3008 -20.1284 56.9559
CA 30.1214 -13.5246 81.8572
CA 39.3886 -15.2116 61.0664
CA 37.2456 -32.8813 58.8661
CA 35.9506 -12.0217 81.8241
CA 12.861 -19.8939 39.8068
CA 18.6723 0.551093 17.7418
CA 24.1064 -31.584 61.487
CA 2.99734 17.3335 19.4634
CA 26.0822 -28.7207 49.4746
CA 10.7408 -11.1329 54.0355
CA 35.3614 -14.4368 49.5114
CA 27.5145 -17.6908 96.4354
CA 27.5073 -0.661499 1.90349
CA 29.6512 -23.1225 89.7103
CA 27.3277 -28.4114 46.5093
CA 29.9286 -34.4048 89.165
