489

CA -5.16091 0.958346 36.4522
CA -2.66852 -33.6539 52.238
CA 3.89002 -14.6289 42.3684
CA 13.1871 11.3033 75.1961
CA 11.8889 15.688 49.7638
CA -1.52023 3.53852 57.8358
CA -2.82311 -1.62341 48.0024
CA -20.2231 -15.4261 25.9584
CA 5.53561 -5.41772 80.6685
CA 16.1957 3.90282 52.4259
CA 3.27361 0.789071 89.6864
CA 11.6348 -11.1484 47.64
CA 11.4903 7.72288 73.9463
CA 37.0404 -13.2879 50.9458
CA 33.2534 -11.9221 50.9568
CA 2.05923 0.567231 47.171
CA 33.8633 -12.9225 55.2952
CA -12.1284 26.2301 70.7328
CA 3.95019 26.2621 24.0754
CA 5.14819 11.4909 15.6988
CA -14.1352 7.68973 72.6056
CA 4.34049 16.2938 30.0044
CA 7.08728 1.07739 87.4339
CA 13.0736 -2.44892 78.1066
CA 2.67256 -16.0575 41.4984
CA 4.3338 5.40396 56.7124
CA -14.2352 10.1075 74.3533
CA -23.5902 2.81506 78.8372
CA 0.16066 -1.3702 45.5472
CA 4.66478 2.54248 89.2829
CA 18.358 -20.5854 47.9893
CA 20.0247 -10.1617 90.8976
CA 15.0275 -5.63021 42.5268
CA 14.7333 -2.00402 54.2947
CA -0.651828 -1.41409 48.5287
CA 10.0128 5.96929 23.8275
CA 2.82714 -14.9883 36.7356
CA 16.0889 20.7985 72.6293
CA -0.361687 9.0925 79.4514
CA 0.232026 2.69056 54.1454
CA 7.9372 -2.6009 38.7376
CA 5.58357 17.6447 74.4757
CA 13.022 14.2993 75.2479
CA -0.86572 0.372266 56.398
CA -10.7672 -6.35634 81.3911
CA -5.8517 13.5169 60.5243
CA 7.66379 -0.840959 42.0317
CA 21.4243 -8.64435 86.787
CA 1.06014 -9.99092 43.5171
CA -6.36214 20.7582 71.5442
CA 23.3562 -15.8813 92.8883
CA 2.55867 12.996 31.5177
CA -1.42303 0.4688 87.6313
CA 22.4139 -21.5619 51.1794
CA 1.9979 25.2735 29.148
CA 25.2551 -20.8298 56.5893
CA -13.8378 30.7068 73.0885
CA 14.5882 -7.90794 83.5153
CA 13.881 -5.78566 77.1942
CA 15.7195 -3.35078 53.4611
CA 1.52329 17.2047 67.5387
CA 3.09869 16.549 64.2935
CA 2.76631 -1.19913 81.0733
CA 2.12059 -1.54963 48.1288
CA 19.57 -8.67595 97.9668
CA 25.5916 -12.3972 44.0256
CA 15.8239 7.4868 75.5643
CA 15.7189 21.6652 36.5716
CA 21.186 -20.0148 48.7136
CA 20.0296 -27.1294 54.1287
CA -5.35338 -10.7384 53.1655
CA 18.2549 -11.5621 86.7489
CA 13.5696 6.68512 16.9895
CA -5.43954 30.6667 50.5505
CA 10.226 17.9298 30.9139
CA 26.9708 -13.9757 57.9001
CA 6.88617 6.08637 52.126
CA 13.1151 -6.08803 91.285
CA 10.0446 -6.26826 46.61
CA -20.3243 -18.4817 23.7029
CA 0.266138 12.3501 29.9404
CA 20.9916 -12.3532 54.0789
CA -3.7984 -6.56809 42.1973
CA -5.40522 31.4902 53.3841
CA 11.24 -8.69682 46.3949
CA 4.41468 -5.12329 86.9406
CA 12.0485 -3.96225 81.9962
CA 4.92227 15.4829 16.1463
CA 0.84493 21.2836 73.9009
CA -3.75908 22.872 50.6358
CA 0.560918 -7.09607 43.0858
CA 4.05009 15.3697 82.3354
CA 8.95737 13.874 54.621
CA 31.2918 -12.5798 46.1664
CA 3.77525 -1.73086 56.5223
CA 16.5577 -23.6072 47.0443
CA -1.40203 -37.9406 51.5524
CA -1.86909 5.64884 47.6302
CA 0.18412 12.2622 33.2312
CA 1.51307 12.5205 16.574
CA 2.33891 9.8409 86.479
CA 15.0715 4.01452 54.0642
CA 5.58721 -1.7036 88.1682
CA 15.876 -0.806302 48.5298
CA 3.00637 5.53194 55.0798
CA 0.139431 -1.6749 52.3901
CA 37.8615 -15.2276 53.0724
CA 11.7123 -1.45785 96.1656
CA -10.001 3.72583 49.5951
CA 11.0675 10.1284 73.8385
CA 11.3334 2.98192 48.4842
CA -9.37288 20.9403 72.0926
CA 18.9126 -23.0727 60.585
CA 0.108948 29.5106 56.3666
CA -10.759 24.3739 72.8438
CA 5.5179 -3.75926 51.9351
CA -6.89236 26.8843 48.2834
CA 10.8531 -16.413 88.5143
CA 16.3141 -5.39124 95.5404
CA 3.21601 13.9466 14.7604
CA 15.787 13.0654 49.3388
CA 10.5138 13.4387 51.0903
CA 7.60441 -16.2243 88.3205
CA 10.9412 -9.62194 40.2538
CA 0.699043 -37.6122 57.9035
CA 28.5877 -23.9983 55.7404
CA -3.9564 8.28249 46.358
CA -14.6301 -16.7915 25.7678
CA 1.46463 12.0333 81.3792
CA 19.3966 -3.69254 86.4209
CA 34.5365 -30.4266 51.4034
CA 7.56959 -5.90298 87.9191
CA -16.6704 -17.0009 24.6987
CA 10.4389 19.5192 72.8344
CA 15.3304 -9.96599 41.3217
CA 8.97195 -1.98487 86.4815
CA 3.22487 18.0896 76.3258
CA 18.4645 19.5424 47.7582
CA 2.61884 12.1649 73.2745
CA 19.8199 -5.01719 100.051
CA 7.32731 18.1726 28.2721
CA 2.1376 20.7318 24.5864
CA 1.05591 15.793 30.5833
CA 42.3166 -16.359 49.3184
CA -4.0317 3.44515 39.4808
CA -2.92068 -3.00718 84.5376
CA 24.5828 -23.2098 51.4695
CA 8.81415 -3.01433 41.6729
CA 15.18 17.0082 36.3537
CA 23.7054 -29.271 52.5073
CA 1.07314 12.982 83.2292
CA -0.369963 11.2443 66.5794
CA 3.90502 4.4911 48.9571
CA 9.23073 -6.92206 83.7571
CA 2.45331 -7.69208 90.7081
CA 3.66806 17.7887 33.8851
CA 9.64485 15.5157 33.6599
CA 1.91267 26.1935 72.2374
CA 5.78196 -1.60259 81.3303
CA 24.4214 -16.8207 50.6748
CA 20.7471 -28.7242 54.6314
CA 0.749557 1.72615 88.1743
CA 1.46441 -4.45593 82.958
CA 33.2691 -9.83248 45.1216
CA 2.73015 -4.12234 87.8303
CA 6.23584 2.29435 77.489
CA 3.2581 0.237076 51.883
CA -3.68019 31.7076 48.0109
CA 13.9868 -21.2272 63.541
CA 3.02927 6.52987 58.7331
CA 12.4979 -5.19372 45.1906
CA -9.64927 4.40482 43.9691
CA 7.91807 24.682 83.8289
CA 20.3222 -6.46581 44.152
CA 3.07192 19.1813 28.0146
CA -15.6159 -18.688 38.0375
CA 6.60712 -4.28394 81.9738
CA 3.59062 7.35572 80.4656
CA 9.18989 -8.70012 85.2672
CA 21.7231 -14.2238 53.6868
CA 9.44253 5.26914 75.343
CA 25.2248 -18.1582 41.7357
CA 7.61237 6.27069 70.025
CA -32.7109 -0.453519 59.8478
CA 7.72029 -10.6241 88.1786
CA 41.2287 -23.2397 51.8382
CA 9.66399 16.4561 72.9296
CA -10.8778 13.637 40.2966
CA 23.8548 -8.96704 52.7808
CA 5.83368 -5.92465 88.6392
CA -3.80009 10.3794 62.5073
CA -4.67465 8.70171 62.8402
CA 10.0987 -5.44991 81.393
CA 19.7684 18.9233 27.7547
CA 11.4301 0.333446 90.6198
CA 27.579 -15.3695 51.8734
CA 5.73143 -8.43239 81.1974
CA 13.6295 -7.41876 86.1358
CA -4.78536 26.3434 75.7996
CA 32.0516 -14.225 47.0435
CA 17.0094 0.994075 72.2487
CA 9.58414 -9.29781 47.5679
CA 0.621407 12.3009 59.5594
CA 17.8778 20.2921 75.4602
CA 9.34045 27.3465 79.2888
CA 12.9028 12.0065 67.1172
CA 19.0433 -7.37969 95.9328
CA -10.1988 0.383602 39.3729
CA 6.57528 18.839 72.7372
CA 20.6652 18.0567 47.9836
CA -2.24064 -3.07263 50.008
CA 4.80861 21.0714 81.8251
CA 9.2281 15.4279 27.2597
CA 7.59511 4.68335 41.6999
CA 5.95016 9.0542 52.8357
CA -3.07904 13.4929 30.8779
CA 2.63909 -38.1183 50.7632
CA 5.70826 16.0248 28.8253
CA 20.8783 -21.2985 60.0704
CA 3.16414 0.507261 66.8129
CA -5.62086 -7.34133 50.9913
CA 5.16034 9.56578 39.6369
CA 39.2302 -32.0254 52.7135
CA 6.24191 6.27031 68.2423
CA -2.1957 31.6662 54.2149
CA -1.63025 -5.96879 52.3196
CA 6.00549 14.6258 74.6762
CA -2.50472 -0.280637 86.0413
CA -0.322699 3.53903 37.9024
CA 11.2742 19.2592 74.946
CA 10.7163 7.16612 69.6961
CA 16.6982 16.119 49.8498
CA -4.7855 -9.56576 49.1869
CA 1.76729 19.9406 32.5265
CA 3.00032 -1.00057 49.927
CA 29.9568 -21.7276 42.874
CA 10.7581 15.665 30.8502
CA 8.53731 -7.93524 76.1981
CA 12.9267 -2.545 94.1634
CA 12.2506 -8.03129 37.5447
CA 19.7664 4.28987 40.6178
CA 2.47827 -13.0662 46.0047
CA -16.4982 7.23401 55.2283
CA -0.709544 -13.3088 36.8592
CA 23.7108 -12.6625 90.5405
CA 13.9877 -9.81297 35.6539
CA 7.5813 -1.70609 83.4374
CA -0.257254 12.8246 57.4268
CA 31.4635 -13.2755 48.7206
CA 4.57743 1.19269 54.3526
CA 21.1736 0.41072 47.3143
CA 11.6026 -9.838 85.9362
CA 2.06711 23.7097 24.5825
CA 7.26396 -6.79735 92.2075
CA 5.21881 10.6455 44.262
CA 31.9627 -11.5604 48.1245
CA 7.22675 11.5119 67.4037
CA 22.0089 -18.3779 50.3074
CA 4.0585 15.5387 72.1727
CA 38.2299 -14.3773 48.1237
CA -8.43431 3.31563 44.9762
CA -9.31144 9.78138 41.7689
CA -0.207966 11.2422 68.5916
CA 13.4972 9.44494 52.9818
CA 1.20976 -3.4319 84.9945
CA 11.2179 8.17789 62.947
CA 16.1539 -5.94827 46
CA 12.8311 3.18466 53.1982
CA 13.271 18.5285 72.5414
CA 18.4922 5.40737 42.4792
CA 12.439 14.5182 51.113
CA 2.59173 22.3805 22.8145
CA 5.18845 9.50948 63.3666
CA 11.147 6.41816 52.9708
CA 9.23284 0.813138 67.9815
CA 5.33432 -39.0461 50.5203
CA 16.1543 9.10468 73.2372
CA 8.98664 -8.69066 82.7835
CA 5.63885 22.6923 50.8917
CA 5.89893 3.6936 50.0377
CA 12.4057 8.62737 20.5232
CA 16.5309 -3.91174 70.9703
CA -5.01939 -1.0496 44.1145
CA 27.2861 -18.1061 54.5019
CA 11.0784 6.63112 65.9438
CA 16.9006 -6.12503 89.3282
CA 21.9681 -10.0006 51.7447
CA 24.8827 -23.0872 47.8846
CA 14.0565 -0.854599 50.2777
CA 27.4047 -12.3529 43.4779
CA 7.43925 15.6318 51.1957
CA 9.76942 -10.5128 86.6449
CA 4.00963 3.67773 86.579
CA 6.42594 -3.19922 85.2412
CA 13.0436 18.0779 29.4135
CA -6.75292 -0.48012 46.3342
CA -3.4638 32.7355 51.6722
CA 3.81905 -9.24371 79.6885
CA 1.64771 -6.53433 54.246
CA 12.3776 19.1739 68.8544
CA -10.3746 28.3816 50.3818
CA -1.00144 21.2853 79.3915
CA -0.890507 1.68201 52.1309
CA -3.96431 23.3767 52.489
CA 1.53998 14.6758 33.4911
CA 9.05251 -4.79898 41.2189
CA 31.7824 -25.262 52.207
CA 14.4435 -1.41253 89.4557
CA -2.6203 8.71636 56.5876
CA 25.3907 -19.1217 45.8503
CA 7.78609 22.8846 34.7844
CA 8.8987 -4.79007 50.9327
CA -7.66225 11.3437 71.1685
CA 26.4576 -22.3837 59.0009
CA -2.05958 -0.831305 84.3486
CA 13.5974 4.01491 51.7315
CA -35.1998 0.311004 61.2068
CA 5.18035 17.4171 69.6179
CA 10.2547 24.7542 34.5239
CA 19.8957 -8.88063 89.0893
CA 19.538 -3.66818 50.3129
CA 7.26562 13.649 48.7167
CA 5.5272 11.0631 56.0898
CA 4.9609 9.36224 72.6025
CA 8.35533 11.6177 76.692
CA 13.0277 8.51495 16.4817
CA -10.02 -5.64993 85.9509
CA 10.8478 19.8973 30.0586
CA 4.80656 -4.18877 90.4222
CA 3.20872 6.1819 52.4181
CA 24.7882 -33.5485 50.4475
CA -24.9688 -4.05656 27.6958
CA 25.5703 -19.7203 50.5825
CA 30.0418 -15.6787 55.5018
CA -4.21574 29.1229 54.4191
CA 25.7933 -20.462 43.0233
CA 35.4675 -16.2304 49.6068
CA 2.95836 18.2813 79.1233
CA 16.527 -8.65717 45.9467
CA 8.91646 5.19958 68.6439
CA 10.4763 -3.06029 91.0236
CA 5.92262 6.69776 65.1418
CA 11.0236 9.5151 50.6148
CA -39.0528 1.42592 58.8268
CA -27.0324 2.60046 26.9676
CA -8.7149 1.67619 43.9691
CA 20.631 -21.5767 50.1941
CA 14.7718 11.8458 50.3715
CA 8.80144 8.93495 66.9328
CA 10.2684 7.4811 64.4618
CA 18.3291 11.63 73.3487
CA 2.85437 7.03418 49.4201
CA 1.54107 14.6638 13.4137
CA 9.27979 12.5095 28.945
CA 14.805 10.7319 76.6595
CA 12.6077 11.3004 18.7822
CA 9.3111 -6.68987 93.3711
CA 11.4279 6.58263 49.5955
CA -11.0786 37.754 49.8792
CA -6.84114 6.18583 46.0257
CA 8.52995 11.5552 74.2089
CA 6.23424 2.43547 45.2567
CA 10.7619 13.8313 72.2663
CA 4.78876 7.73616 66.2771
CA 4.52665 14.9044 25.1128
CA 31.8054 -28.554 50.6614
CA -0.386902 1.28034 50.4039
CA 7.66138 -5.98756 83.0056
CA 9.66598 10.7758 52.7234
CA 3.77947 4.86621 78.7669
CA 14.7281 -22.306 58.934
CA 7.14313 13.3788 67.7841
CA 7.72208 12.4259 65.5006
CA 22.1005 -31.3331 50.4487
CA 8.91424 -5.71065 79.8807
CA 2.77028 2.02627 86.5877
CA 9.9752 8.2645 40.1281
CA 12.2392 12.428 48.1563
CA 15.0178 2.00187 86.5929
CA 4.7437 -4.54999 41.2793
CA -11.4225 8.64886 72.5291
CA 2.23035 -3.0035 51.0917
CA 24.3645 -4.78248 50.9779
CA 23.5093 1.31009 71.7172
CA 11.4369 0.13395 86.1947
CA 4.31699 11.05 59.5753
CA 6.3693 11.8584 77.6602
CA 3.9041 -8.21561 46.6548
CA 10.8858 -3.57408 93.9628
CA 20.0552 -15.3715 93.4074
CA 1.49451 -1.06123 89.8919
CA 12.19 16.0716 33.2818
CA -4.24863 10.2407 59.8395
CA 9.73014 12.2654 39.7342
CA 3.74432 -12.2294 37.1823
CA 15.8331 -26.4649 62.2485
CA 4.24283 14.2671 28.5499
CA 13.3941 4.84272 73.9531
CA 9.13368 18.6322 25.1856
CA -0.121175 15.7839 83.3337
CA 0.87352 9.81764 50.6735
CA 10.1212 8.09256 19.2854
CA 11.019 16.8845 52.8659
CA -0.912751 15.2815 69.9438
CA 27.6762 -18.9552 56.2536
CA 26.3608 -19.7216 59.0581
CA 4.56215 8.84225 80.7624
CA 4.71374 2.68657 67.6448
CA 1.28188 7.74615 57.4689
CA 8.56598 14.3595 46.9893
CA 9.6069 9.87291 19.0694
CA 15.2867 -10.046 86.0514
CA 3.74204 11.7093 57.9673
CA 11.5298 -7.85856 44.1934
CA -2.43782 -8.19406 41.8543
CA 4.47888 11.1722 80.1017
CA 4.2004 16.8406 52.9629
CA 8.30745 21.982 27.0129
CA 35.3049 -12.7451 51.3076
CA 20.8527 4.20679 70.621
CA 26.4073 -22.4427 52.2532
CA 6.09439 22.4728 90.4963
CA 14.2137 9.42449 69.8593
CA 11.3505 18.1126 27.3019
CA 5.75943 14.9749 68.8037
CA 20.9865 -21.8547 52.605
CA 4.71379 19.838 30.9487
CA 0.783127 0.740082 49.1238
CA -15.8081 27.3223 73.3847
CA 4.35476 14.1587 13.276
CA 40.8348 -21.1506 55.0803
CA 19.6202 4.71197 45.3514
CA 12.0127 -4.98161 88.7075
CA 4.88481 16.86 67.1219
CA 19.5217 -24.8652 55.8364
CA 3.33612 16.1273 69.6135
CA 12.3298 -10.4112 87.6533
CA 0.483815 7.06414 52.5301
CA -3.29157 10.8598 64.9047
CA -34.9184 -0.199282 66.9031
CA 5.89296 -7.10121 82.4523
CA 7.74744 10.602 65.0396
CA 4.85037 -7.12626 79.82
CA 28.7449 -21.5218 51.9688
CA 9.41615 8.2531 59.5394
CA -7.77604 7.84515 66.2359
CA -1.05077 22.1671 73.2174
CA 20.8004 -7.56304 54.4914
CA 8.10248 2.69148 55.3054
CA 22.4801 -27.1986 47.4861
CA -1.31668 5.0907 65.9776
CA 3.97604 -5.03245 83.0356
CA 26.4235 -21.5162 47.0786
CA 3.6609 2.25193 45.8798
CA 12.9577 -24.641 62.3858
CA 12.994 -6.98944 88.4974
CA 14.3172 -11.6175 39.0447
CA 9.00058 20.9883 29.2458
CA -3.88998 -7.40214 52.6597
CA -13.0572 28.6912 73.0586
CA 14.3551 21.3326 31.3129
CA 15.5757 -6.50248 44.0289
CA 17.1288 -25.1243 61.7344
CA -2.01822 27.5731 51.4788
CA 12.9721 -12.5257 88.7885
CA 8.14574 19.0478 52.0816
CA 14.7932 -3.26346 48.6739
CA -4.8281 -6.58189 48.8974
CA 7.00916 -3.65247 87.6698
CA -2.75582 0.0733547 43.9503
CA 11.9135 11.0311 64.327
CA -10.3117 38.3775 51.4914
CA 0.700505 22.2018 75.704
CA 6.59005 -11.0631 85.9917
CA 41.5451 -12.6898 47.0099
CA 1.23931 -39.9124 47.8956
CA 19.7186 -6.67259 71.8135
CA 8.81498 6.22644 73.1507
CA 3.54677 9.19746 60.9453
CA -6.44701 -9.05836 47.2079
CA 25.2745 -31.1801 46.5152
CA 6.52994 7.42382 81.0454
CA -5.50295 27.5081 53.6055
CA 7.35698 14.9109 37.9408
CA -6.60412 -5.89522 50.1953
CA 8.98007 17.2447 32.2262
CA 13.1356 12.334 73.3462
CA -17.9065 -15.7022 26.7609
CA 10.3045 3.24268 70.5928
