489

CA 9.37521 19.1595 49.8969
CA 18.9121 3.2663 69.4072
CA 22.8364 -21.3778 61.3563
CA 11.9361 10.9527 33.8011
CA 11.8889 15.688 49.7638
CA 22.7043 -21.8628 51.6376
CA -2.82311 -1.62341 48.0024
CA -7.30365 7.62778 50.4676
CA 4.75006 17.5549 16.3391
CA -0.726324 3.77978 69.887
CA 7.79676 -0.22687 68.8346
CA 11.6348 -11.1484 47.64
CA 6.71376 11.3908 28.9804
CA 37.0404 -13.2879 50.9458
CA 33.2534 -11.9221 50.9568
CA 2.05923 0.567231 47.171
CA -3.07566 9.10078 31.4726
CA 21.3149 -21.7896 54.1329
CA 24.8219 -37.7179 54.3109
CA 15.87 -11.9896 36.1428
CA -14.1352 7.68973 72.6056
CA 10.9828 27.035 36.3731
CA -4.9288 30.3435 53.1594
CA 22.4859 -10.8448 87.6043
CA 2.67256 -16.0575 41.4984
CA 29.3408 -14.6162 50.0277
CA 10.9032 5.72839 39.6779
CA 2.95497 4.55296 88.119
CA -1.25588 13.5844 55.2165
CA 4.66478 2.54248 89.2829
CA -7.36381 -8.10313 52.7058
CA 17.0496 -8.02406 96.8351
CA -1.01925 24.7845 27.6967
CA -9.38477 4.96461 67.05
CA -0.651828 -1.41409 48.5287
CA 0.72984 -11.4236 77.5074
CA 5.89075 16.1599 47.8063
CA -2.5209 19.1165 22.9235
CA -13.3723 5.19627 69.5099
CA -2.7791 4.6196 57.0007
CA 1.3988 18.8492 83.6911
CA 24.5272 -35.4727 52.9364
CA -0.873926 32.6939 52.4707
CA 13.9364 13.8158 75.5029
CA 6.31157 12.3295 63.614
CA -3.43147 -5.26061 54.8063
CA 7.66379 -0.840959 42.0317
CA 3.06799 2.05632 50.2442
CA 1.06014 -9.99092 43.5171
CA -0.822084 3.84991 79.1345
CA 15.7147 16.5595 71.9069
CA 2.55867 12.996 31.5177
CA -12.3594 23.8201 74.4265
CA 19.7915 16.016 48.0492
CA 1.9979 25.2735 29.148
CA -36.0274 -1.89171 66.9793
CA -13.8378 30.7068 73.0885
CA 14.5882 -7.90794 83.5153
CA 19.8754 -8.48069 48.2971
CA 25.8649 -21.1504 60.1726
CA 6.64885 17.3116 29.7645
CA 24.8228 -12.3693 92.2274
CA 16.7716 -5.79501 80.4588
CA 15.7843 2.00542 55.2027
CA 1.27653 2.69622 92.8495
CA -3.46222 5.21316 44.5046
CA 15.8239 7.4868 75.5643
CA 19.787 -10.5902 87.9129
CA 21.186 -20.0148 48.7136
CA 39.9015 -12.1378 52.2942
CA 5.03484 15.9163 35.2253
CA 10.4299 -8.27698 50.4627
CA 6.11141 22.3847 72.2032
CA 22.5843 4.12524 45.3814
CA 7.32781 11.8921 32.9896
CA 2.64677 -1.29435 44.0535
CA 6.88617 6.08637 52.126
CA 10.8668 17.0484 40.0331
CA 10.0446 -6.26826 46.61
CA -1.46805 2.78424 42.5202
CA 43.1067 -29.1725 52.7333
CA 17.3673 -28.1094 66.4817
CA 16.0933 -20.0394 66.3882
CA 8.05454 16.3266 50.2478
CA -0.61822 -4.42828 54.197
CA 11.4122 4.20767 66.5988
CA 6.77012 17.3004 51.4463
CA -15.0779 2.20525 71.0363
CA 0.84493 21.2836 73.9009
CA -3.05539 8.12551 80.1561
CA 9.29135 3.87555 67.0198
CA 4.05009 15.3697 82.3354
CA 13.5478 -6.88351 77.3271
CA -12.6212 3.94787 71.0535
CA 8.93268 5.46835 19.0651
CA -5.44511 -9.01376 44.8385
CA -5.64071 8.71081 45.7037
CA 13.8254 -3.86096 44.5503
CA 12.5819 10.6918 15.7945
CA 1.51307 12.5205 16.574
CA 2.33891 9.8409 86.479
CA 6.96348 9.15059 28.4006
CA 5.58721 -1.7036 88.1682
CA 15.876 -0.806302 48.5298
CA 25.2163 -7.82291 48.9664
CA 0.139431 -1.6749 52.3901
CA 12.0269 7.52298 41.4063
CA 11.1499 -7.71498 88.1878
CA 11.6856 -9.95009 51.0308
CA 11.0675 10.1284 73.8385
CA -1.9807 1.44838 46.4523
CA -9.37288 20.9403 72.0926
CA 18.9126 -23.0727 60.585
CA 0.108948 29.5106 56.3666
CA -10.759 24.3739 72.8438
CA -2.50793 0.9042 50.2465
CA 3.41568 18.8066 19.118
CA 5.84718 -5.70407 85.933
CA 16.3141 -5.39124 95.5404
CA 43.9196 -22.8226 53.3878
CA 0.103491 11.0683 57.0767
CA 10.5138 13.4387 51.0903
CA -7.01258 -3.54439 44.3193
CA 10.9412 -9.62194 40.2538
CA 8.76568 8.71523 77.0667
CA -11.8172 22.8861 75.92
CA -3.9564 8.28249 46.358
CA 13.2474 7.50029 63.4647
CA 1.46463 12.0333 81.3792
CA 5.88059 21.2902 50.9041
CA 34.5365 -30.4266 51.4034
CA 7.56959 -5.90298 87.9191
CA -16.6704 -17.0009 24.6987
CA 34.902 -32.7261 52.405
CA 15.3304 -9.96599 41.3217
CA 18.3048 -18.9272 47.6239
CA 0.0973813 -17.8641 36.4042
CA 18.4645 19.5424 47.7582
CA 2.61884 12.1649 73.2745
CA 19.8199 -5.01719 100.051
CA 12.6561 9.23284 81.5427
CA 2.1376 20.7318 24.5864
CA 1.05591 15.793 30.5833
CA -10.305 1.47699 46.6222
CA 1.37536 3.54697 46.5016
CA -2.92068 -3.00718 84.5376
CA 9.59411 16.2445 46.9092
CA 8.81415 -3.01433 41.6729
CA -2.57517 -9.95387 38.5821
CA 14.7507 -10.4196 83.0569
CA -5.8118 21.1192 74.46
CA -0.369963 11.2443 66.5794
CA 3.90502 4.4911 48.9571
CA 3.94802 9.85061 85.2635
CA 2.45331 -7.69208 90.7081
CA 3.66806 17.7887 33.8851
CA 7.05928 16.7108 40.45
CA 28.7887 -14.7592 56.9167
CA 5.59675 -4.51975 51.812
CA 5.23522 11.1848 80.292
CA 7.41587 3.82292 67.6555
CA 6.49284 -1.46518 72.7582
CA -1.70131 30.984 51.4306
CA 33.2691 -9.83248 45.1216
CA 3.55941 14.9977 79.9481
CA 6.43942 25.4004 80.7254
CA 11.3256 14.4178 69.1697
CA 5.77508 11.273 66.2627
CA 9.88294 20.9107 75.879
CA 8.4936 7.73592 71.1276
CA 18.5357 -7.72667 89.9855
CA 8.59645 4.08978 63.3231
CA 7.91807 24.682 83.8289
CA 20.3222 -6.46581 44.152
CA 3.63998 12.6237 37.9953
CA -15.6159 -18.688 38.0375
CA 6.60712 -4.28394 81.9738
CA -4.00622 6.26047 62.9308
CA -1.1543 -9.61569 43.2721
CA 21.7231 -14.2238 53.6868
CA 9.44253 5.26914 75.343
CA 13.2629 -27.7044 58.9719
CA 7.61237 6.27069 70.025
CA -0.47581 22.031 27.66
CA 20.1951 -21.3361 66.6208
CA 41.2287 -23.2397 51.8382
CA -0.665501 3.0334 36.9816
CA -10.8488 11.7216 76.4492
CA 23.8548 -8.96704 52.7808
CA 5.83368 -5.92465 88.6392
CA 8.53702 5.20925 50.1545
CA 6.2848 -3.38936 89.3383
CA 30.9656 -13.8765 47.5632
CA 19.7684 18.9233 27.7547
CA 11.8694 1.75981 85.5153
CA 17.8434 -6.47182 92.0943
CA 5.73143 -8.43239 81.1974
CA 13.6295 -7.41876 86.1358
CA -9.31083 22.4593 73.9766
CA 42.9562 -14.6067 44.8844
CA 0.925574 28.4689 28.4317
CA -3.20655 25.1894 52.3676
CA 0.621407 12.3009 59.5594
CA 2.80951 12.9222 27.4847
CA 9.34045 27.3465 79.2888
CA 40.6178 -14.213 48.7773
CA -0.38968 0.799949 83.754
CA 22.1659 -20.4581 55.2006
CA 6.57528 18.839 72.7372
CA 20.6652 18.0567 47.9836
CA -2.24064 -3.07263 50.008
CA 4.12638 13.8856 84.7893
CA 9.2281 15.4279 27.2597
CA 3.63533 -0.760019 49.2443
CA -12.1457 7.01095 67.8391
CA -3.07904 13.4929 30.8779
CA 13.0748 15.5447 45.666
CA 44.0217 -25.8733 52.3981
CA 20.8783 -21.2985 60.0704
CA 3.16414 0.507261 66.8129
CA -5.62086 -7.34133 50.9913
CA 5.16034 9.56578 39.6369
CA 11.7195 -17.0601 86.2211
CA 6.24191 6.27031 68.2423
CA 16.9871 10.4107 71.4743
CA -1.63025 -5.96879 52.3196
CA 6.00549 14.6258 74.6762
CA 36.1225 -16.9441 46.1114
CA 36.4298 -8.01153 46.6648
CA 11.2742 19.2592 74.946
CA 9.09234 11.644 33.7585
CA 18.6604 2.34497 46.2031
CA 16.6919 -3.10397 100.237
CA 1.76729 19.9406 32.5265
CA 28.7822 -20.8438 57.7019
CA -1.56667 9.12711 30.2981
CA 3.51595 30.5797 59.8945
CA 15.145 -7.7086 89.911
CA 10.358 9.11285 16.3195
CA 4.73342 7.94898 76.651
CA -9.22003 -6.96181 50.5172
CA -10.3959 27.0436 53.9343
CA -7.06849 -8.95275 50.8576
CA -0.709544 -13.3088 36.8592
CA 23.7108 -12.6625 90.5405
CA -4.75431 28.3296 50.6809
CA 10.7114 24.3897 29.6437
CA 1.7657 15.846 75.464
CA 14.4887 -11.023 34.9915
CA 16.935 6.72746 54.5622
CA 0.181259 1.18123 66.7107
CA 11.6026 -9.838 85.9362
CA -30.3335 2.81921 23.591
CA 7.26396 -6.79735 92.2075
CA -8.66724 21.1321 78.1032
CA 31.9627 -11.5604 48.1245
CA 7.24724 11.9657 50.6828
CA 22.0089 -18.3779 50.3074
CA 15.2927 -6.0155 78.8841
CA 10.1404 -1.76865 43.4801
CA 13.8642 17.4248 73.5264
CA 1.13913 2.59236 48.1171
CA -0.207966 11.2422 68.5916
CA 8.51068 -4.88023 90.8361
CA 1.20976 -3.4319 84.9945
CA -1.10048 2.8371 51.6199
CA 6.01382 26.5492 82.8519
CA 12.8311 3.18466 53.1982
CA 13.0267 8.55871 19.0616
CA 9.68324 4.98485 16.8011
CA 5.0377 19.5844 16.2966
CA 7.51399 17.8405 15.4111
CA 17.1057 -20.6684 50.7042
CA 11.147 6.41816 52.9708
CA 12.0635 9.09577 68.4294
CA 17.1724 22.0179 43.59
CA 13.8693 -4.9104 78.5116
CA 2.26616 12.8733 29.6292
CA 20.9821 -16.848 46.5503
CA 5.89893 3.6936 50.0377
CA 3.38483 20.8281 32.3344
CA -1.69443 2.41272 65.1685
CA 7.20667 -0.0395997 85.2435
CA 5.47348 10.4236 49.8305
CA 11.0784 6.63112 65.9438
CA 16.9006 -6.12503 89.3282
CA 21.9681 -10.0006 51.7447
CA -3.83952 -3.33566 46.8761
CA -1.21579 20.9774 77.5141
CA 10.3585 15.3185 19.9247
CA 13.9809 11.3604 69.8353
CA 9.76942 -10.5128 86.6449
CA 6.40207 13.8363 15.0623
CA 6.42594 -3.19922 85.2412
CA 2.6198 4.84917 67.9568
CA 25.2027 -12.1813 56.7603
CA -0.2083 11.1097 84.4847
CA 10.731 -6.06423 79.9897
CA 6.70013 14.1549 38.9002
CA 8.87264 20.2058 71.3234
CA -4.17438 -19.1984 37.4294
CA 17.45 -9.87347 83.3545
CA 5.4212 18.2072 48.1136
CA 5.38914 22.1539 76.2583
CA 1.53998 14.6758 33.4911
CA 12.8185 7.28253 52.035
CA -7.33917 37.8776 51.8895
CA 1.54285 -0.819831 93.3068
CA -2.6203 8.71636 56.5876
CA 31.4068 -23.2255 41.9089
CA 7.78609 22.8846 34.7844
CA 8.8987 -4.79007 50.9327
CA -6.20194 -5.66195 41.6599
CA 9.80995 11.5323 28.6299
CA 15.0776 14.7753 40.7394
CA 13.5974 4.01491 51.7315
CA -35.1998 0.311004 61.2068
CA 28.0971 -13.9912 44.034
CA 10.2547 24.7542 34.5239
CA 11.2486 21.6101 51.9607
CA -4.7207 11.0253 66.2923
CA 12.5251 -5.45858 80.2941
CA 44.2388 -12.3122 44.6906
CA 4.9609 9.36224 72.6025
CA 3.93997 2.35671 85.1281
CA 5.28796 -6.29769 90.5941
CA 3.54012 -39.0513 46.9298
CA 10.8478 19.8973 30.0586
CA 18.4375 -2.72207 50.5434
CA 0.91777 2.542 91.0748
CA 24.7882 -33.5485 50.4475
CA -27.8959 -1.95691 57.5039
CA 25.5703 -19.7203 50.5825
CA 30.0418 -15.6787 55.5018
CA -4.21574 29.1229 54.4191
CA 25.7933 -20.462 43.0233
CA 34.528 -14.1496 42.1723
CA 20.7409 8.74136 70.9556
CA 16.527 -8.65717 45.9467
CA 8.91646 5.19958 68.6439
CA 8.50608 21.0397 73.8553
CA 6.28381 17.2473 71.7397
CA 5.80624 18.2898 31.2554
CA -1.70291 7.80764 65.826
CA 0.512164 -1.62392 50.2173
CA -8.7149 1.67619 43.9691
CA 20.631 -21.5767 50.1941
CA 14.7718 11.8458 50.3715
CA 5.95282 19.3013 70.5625
CA 17.144 -1.8933 51.5019
CA 9.15647 3.81663 42.058
CA 10.7275 17.7825 28.4666
CA 9.34221 -8.96096 85.0016
CA 7.23509 10.6182 70.1086
CA 8.83137 18.4248 33.3131
CA 26.5959 -22.7305 59.4505
CA 9.3111 -6.68987 93.3711
CA 9.11217 16.9415 23.4589
CA -11.0786 37.754 49.8792
CA -6.84114 6.18583 46.0257
CA 8.52995 11.5552 74.2089
CA 9.72791 9.38053 65.2076
CA 10.7619 13.8313 72.2663
CA 14.7932 -8.0118 81.5785
CA 4.52665 14.9044 25.1128
CA 31.8054 -28.554 50.6614
CA 4.86179 -0.413838 92.9919
CA 13.5271 -6.29334 81.69
CA -4.61639 1.08425 39.6033
CA 25.9754 -19.3245 61.2566
CA 15.9175 -5.89052 83.1771
CA 15.4817 -7.50731 98.6505
CA 32.1857 -15.9748 45.1939
CA -11.569 40.8177 50.9527
CA 8.91424 -5.71065 79.8807
CA 2.77028 2.02627 86.5877
CA 1.89172 14.2987 52.0518
CA 16.7898 1.81656 51.7343
CA 19.016 15.5088 45.2091
CA 4.7437 -4.54999 41.2793
CA 11.9896 9.61962 66.2222
CA 41.8827 -13.0025 52.1315
CA 24.3645 -4.78248 50.9779
CA 8.37588 15.3207 38.0104
CA 11.4369 0.13395 86.1947
CA 14.2629 -8.88566 97.8876
CA 6.3693 11.8584 77.6602
CA 8.82146 11.3786 47.4126
CA 5.61153 17.8999 38.0718
CA 7.60323 12.9937 19.3742
CA 7.04488 17.484 27.6816
CA 12.19 16.0716 33.2818
CA 9.89687 0.297191 87.5269
CA 9.73014 12.2654 39.7342
CA -8.49834 -6.59519 41.239
CA 15.8331 -26.4649 62.2485
CA 31.0289 -10.8256 45.5571
CA 13.3941 4.84272 73.9531
CA 9.13368 18.6322 25.1856
CA -0.121175 15.7839 83.3337
CA 0.87352 9.81764 50.6735
CA 10.5262 6.0186 51.267
CA 11.2132 10.7546 17.1671
CA 1.40759 24.5005 24.4505
CA 2.61824 12.3149 87.0815
CA 26.3608 -19.7216 59.0581
CA 4.55518 -0.504656 86.2205
CA 4.71374 2.68657 67.6448
CA 3.81698 21.0068 35.1398
CA 8.56598 14.3595 46.9893
CA 9.6069 9.87291 19.0694
CA 15.2867 -10.046 86.0514
CA -4.53824 7.29863 60.9165
CA -0.177904 3.3962 49.9053
CA 6.26794 17.1354 77.8536
CA 18.8996 19.0968 70.9831
CA 14.2463 13.8473 50.2049
CA 8.30745 21.982 27.0129
CA 15.4779 -0.985202 46.4443
CA -36.9057 1.64556 66.2995
CA 15.2301 10.0338 80.5247
CA -1.91254 1.67249 38.1121
CA -0.653125 2.95799 40.1832
CA -2.27298 9.21398 64.5232
CA 6.36809 18.9596 77.8847
CA 6.63213 19.0227 36.6251
CA 4.71379 19.838 30.9487
CA 0.783127 0.740082 49.1238
CA 16.6238 19.7605 45.9906
CA 4.35476 14.1587 13.276
CA 11.3193 -6.70868 91.4199
CA 6.80155 22.8235 83.7543
CA 4.83997 -10.3986 86.7559
CA 44.877 -24.7602 50.7577
CA 19.5217 -24.8652 55.8364
CA 12.2717 14.6503 15.4061
CA 12.8285 -2.7318 83.9135
CA 19.8279 22.602 72.3512
CA -8.52741 -9.13204 43.9086
CA 10.3618 13.3417 46.7148
CA -2.21439 4.16204 64.1495
CA 7.74744 10.602 65.0396
CA 4.85037 -7.12626 79.82
CA -3.36891 -11.6396 47.2639
CA -5.52884 24.1046 69.0628
CA -7.77604 7.84515 66.2359
CA 27.5778 -32.2061 52.0826
CA 20.8004 -7.56304 54.4914
CA 11.7096 13.7591 40.1748
CA 3.2421 10.8904 28.8549
CA -1.31668 5.0907 65.9776
CA 17.0397 -11.5802 86.2051
CA 23.384 2.70478 46.5087
CA 3.6609 2.25193 45.8798
CA -13.136 21.3407 74.6582
CA 13.9446 13.0327 79.4304
CA 14.3172 -11.6175 39.0447
CA 3.841 11.8001 25.619
CA -3.88998 -7.40214 52.6597
CA -5.51996 -2.31385 49.8243
CA 14.3551 21.3326 31.3129
CA 15.5757 -6.50248 44.0289
CA 40.6448 -13.3507 44.4832
CA -2.01822 27.5731 51.4788
CA 3.57841 20.1708 70.0167
CA 17.2196 5.22742 45.4129
CA 14.7932 -3.26346 48.6739
CA 9.41659 7.52834 66.8508
CA -7.99768 -8.72008 56.4591
CA 10.2394 27.3862 76.3884
CA -8.30758 22.0839 71.1692
CA -1.29946 18.2615 25.8122
CA 0.700505 22.2018 75.704
CA 8.01094 10.5098 49.336
CA 41.5451 -12.6898 47.0099
CA 1.23931 -39.9124 47.8956
CA 0.893868 8.94173 41.973
CA -1.03695 -12.6299 39.2446
CA -0.0687069 24.5604 31.467
CA -6.44701 -9.05836 47.2079
CA -0.996968 -2.72939 55.4954
CA -11.8887 37.6421 52.9212
CA -5.50295 27.5081 53.6055
CA 4.51611 21.6039 29.9498
CA 0.0846614 -5.01461 50.4849
CA -1.96178 -15.4897 40.0087
CA 3.10897 17.3984 32.1091
CA 1.34987 26.5478 52.7816
CA 20.9369 18.138 31.0448
