489

CA 3.4593 10.4212 67.8115
CA -32.7097 7.68179 37.7684
CA -24.3621 -13.1118 49.9126
CA 14.3426 14.4699 44.6079
CA -11.413 -10.8278 55.1247
CA 32.9572 -8.91032 56.0419
CA 0.604812 5.06777 24.0864
CA -7.74043 6.25348 56.5436
CA 18.4134 -18.1605 54.2881
CA 7.426 -35.6133 44.9
CA 18.4558 6.32864 77.683
CA -3.21866 14.0459 83.7365
CA 11.7835 -29.0761 52.679
CA 35.1636 -16.2637 52.1086
CA 1.72959 -17.1586 71.6658
CA 1.17094 -16.2783 74.2062
CA 1.99095 -16.9672 51.1174
CA 0.401381 26.0132 53.4682
CA -26.1581 15.9744 36.0913
CA 32.8834 -6.52595 68.5409
CA -2.66747 -31.7542 32.8789
CA -6.54906 10.0244 50.809
CA -3.16523 -6.8454 47.2778
CA 9.41564 8.70526 39.3116
CA -34.0568 7.5539 48.4746
CA -22.9824 2.78491 67.1209
CA 11.0041 27.9186 41.457
CA 16.4991 21.1429 38.2811
CA 3.01585 -10.5617 63.158
CA -9.52782 25.9762 72.5047
CA 17.8661 21.269 61.48
CA 32.5096 -11.933 51.8211
CA -18.3049 12.4051 56.6411
CA 16.2766 -2.62252 45.5899
CA -11.9997 1.76306 81.6918
CA 4.55747 37.4457 40.614
CA -28.2057 6.90872 50.8973
CA -29.685 19.1477 50.9196
CA 3.22343 16.1532 16.2451
CA -19.8078 2.6433 69.7303
CA -10.7943 -10.8456 17.5549
CA 29.7398 1.4781 38.373
CA -11.438 -10.0195 57.9625
CA -29.0024 -2.50192 36.9145
CA -31.9992 13.4403 54.5775
CA 7.16062 28.4734 42.5331
CA 0.131856 -13.3168 72.9141
CA 19.5187 -2.50895 42.8364
CA 19.6907 -24.8397 43.4191
CA 8.04258 -28.3118 52.9009
CA -10.7717 -0.719176 42.8016
CA 31.7992 -13.9632 50.5196
CA -24.4052 -18.3772 64.8144
CA 25.2706 3.76959 45.5808
CA -16.948 34.5565 40.6907
CA 17.9403 2.00826 42.8268
CA 20.8094 -0.648636 53.4711
CA 11.4366 6.82282 50.7841
CA -17.2795 8.77315 66.7958
CA -26.0076 11.0906 49.4749
CA 12.5276 -8.6238 69.8622
CA -8.80037 -25.2212 30.5947
CA -24.8469 -1.72786 49.8101
CA 11.9197 -3.43874 71.2929
CA -19.6688 -13.2486 39.9973
CA -4.18948 8.82555 85.5665
CA -18.8255 0.651069 32.5086
CA 22.3325 -18.3251 59.8
CA -1.47899 -5.66743 70.3857
CA 7.80614 9.26109 37.915
CA 31.6357 -8.84172 38.6949
CA 35.9667 12.562 58.7412
CA -7.34939 -26.0036 79.705
CA -4.58164 27.8941 58.3469
CA -1.30505 24.3842 37.9533
CA 0.885283 -1.04115 71.4176
CA -25.4863 -27.8594 56.8272
CA 20.2002 14.3687 73.9762
CA 5.59804 31.557 58.7049
CA 10.1862 -0.36039 72.9277
CA 19.964 5.56714 61.42
CA 15.9926 18.3374 56.124
CA -8.73609 -27.416 69.3026
CA -11.3668 -2.3301 88.0356
CA -14.9552 8.17554 16.2531
CA -20.2261 0.467413 66.6605
CA -5.85422 8.04429 50.3183
CA -10.8241 0.0239255 52.116
CA -4.80593 -9.87995 50.2024
CA 24.7614 4.78518 74.504
CA 22.5817 -18.167 77.7985
CA -29.102 2.97976 50.8721
CA -19.1123 -19.6686 39.6271
CA -17.7595 -3.62576 71.8682
CA 18.4604 24.0953 59.38
CA 14.4898 14.0477 40.7891
CA -5.09138 -9.76856 66.2435
CA 20.9142 -14.2508 56.1025
CA 4.80362 14.4883 35.3014
CA 18.6925 0.481704 67.9647
CA -27.5968 5.27041 44.1615
CA 4.70371 15.2268 47.6651
CA 23.4751 -14.0322 50.9347
CA -0.373965 5.93821 27.8681
CA 0.519341 43.4566 57.8424
CA -4.19387 -35.9171 30.3793
CA 9.63228 15.6773 47.9761
CA 34.1757 -9.49561 57.3318
CA 26.0178 0.451532 38.9038
CA 7.25249 -5.61155 69.8482
CA -29.2292 8.35611 50.3752
CA -8.4634 -1.69502 39.329
CA 32.3904 3.7845 44.6946
CA 9.91564 -1.11641 70.8628
CA -2.43663 3.98527 34.0298
CA 7.21692 -38.9921 45.3326
CA -0.881278 -10.168 71.9299
CA 10.7816 6.67264 37.0733
CA -29.4468 -0.521374 42.5859
CA 10.9174 -2.44275 65.6655
CA -4.5127 12.1973 83.21
CA -11.611 -26.0712 31.8983
CA 4.002 -18.3208 51.5114
CA -0.971123 -11.0165 69.8099
CA 20.3186 -25.4738 71.8867
CA 9.02639 26.6044 69.7753
CA 5.75088 -15.8747 37.774
CA -3.24817 5.89816 54.3928
CA -0.74713 2.97902 38.4601
CA 7.42515 -11.3012 25.8854
CA -10.187 -22.2017 30.6616
CA 20.4066 14.1113 19.1035
CA 20.8893 3.9846 66.6536
CA -7.61812 -19.5854 80.8251
CA -6.50957 -8.87915 53.2724
CA 25.7942 1.49155 21.8073
CA -11.81 -11.0639 19.1539
CA 17.2297 20.3418 52.7664
CA -23.7858 0.90639 45.7719
CA 6.87976 19.3595 76.7706
CA 11.6923 29.7403 41.5858
CA -14.837 36.2272 45.7535
CA -5.75224 -18.2504 48.0958
CA 12.0663 -21.9574 27.5426
CA 5.59288 -0.501995 12.9708
CA -6.63804 -9.27921 16.9075
CA -5.98083 -26.7515 80.6282
CA 7.35941 9.55796 50.5677
CA -27.2695 1.59859 37.4558
CA -32.6558 12.851 77.5996
CA -21.309 20.3548 72.9056
CA -12.9301 29.1608 22.4097
CA 19.7313 23.2713 50.52
CA 19.7282 -28.9362 38.7659
CA -17.1337 8.28169 20.9741
CA 9.5058 13.8036 69.9981
CA 5.75969 16.4294 78.3589
CA -3.12521 -9.82795 54.348
CA -6.03735 -29.7362 34.3977
CA 23.3646 11.5289 77.3284
CA 11.1275 -20.4024 26.6416
CA -19.0596 -14.1932 64.9776
CA -9.4935 0.107661 41.5773
CA 3.48369 35.9644 57.7636
CA -8.35322 -30.128 38.4808
CA 29.9766 -0.851945 37.3104
CA 0.0751163 -17.5199 72.6662
CA -9.42297 28.1227 68.4556
CA -6.57536 -32.0546 28.354
CA -11.9971 -1.5068 81.1025
CA 22.3942 -20.7345 45.1699
CA 20.4336 -13.0368 60.6931
CA -1.41896 -8.72596 69.6251
CA -7.45059 -22.1038 71.2646
CA 6.41857 -31.7592 55.7632
CA -35.0946 6.61822 64.4536
CA -21.696 -14.7796 49.8914
CA 30.4931 2.1317 18.8989
CA 16.8169 1.08088 56.3614
CA 7.49206 -33.4751 70.6652
CA 5.64793 4.94018 17.8762
CA -9.34558 -2.08549 87.6354
CA 6.44143 37.3447 61.249
CA 2.12038 -9.84462 34.2701
CA 7.23479 -4.80726 54.4015
CA -25.834 7.68801 46.549
CA -8.84596 -34.0716 48.3153
CA 6.07341 -4.21736 48.9031
CA -16.4015 20.4387 43.305
CA 22.7982 -20.4127 33.1857
CA 2.0833 42.1993 60.7913
CA 16.4834 -3.16113 40.8992
CA 13.2295 11.2054 50.2646
CA -10.0241 -9.43208 72.8661
CA 6.75502 11.5856 48.64
CA 21.7709 -15.9741 52.8174
CA -7.95133 -34.8544 25.2041
CA 25.2317 18.3318 42.5559
CA 5.35316 -29.356 24.0516
CA -32.3914 -5.12757 66.8168
CA 4.87655 8.88468 45.4071
CA 23.7272 -16.8628 76.9455
CA 4.0221 -4.93238 52.6214
CA -35.6289 16.9798 54.9154
CA 2.56693 -13.5356 53.9857
CA 0.0525299 35.2992 27.5885
CA 9.38498 -3.78062 69.4152
CA -17.05 0.78572 55.5928
CA -1.43365 -15.2875 72.4031
CA -5.95306 26.945 34.5346
CA 8.17491 35.6762 60.0064
CA 36.1024 -9.3548 56.174
CA 28.074 -4.02352 39.4043
CA 2.85383 -10.088 56.7313
CA -30.6254 -1.14317 36.729
CA 13.8511 13.244 38.366
CA -0.62232 -19.8095 72.6601
CA 23.5545 -17.7159 34.6817
CA -26.9508 7.65977 79.978
CA -3.0199 11.4751 14.8052
CA -4.50656 18.2225 75.1781
CA -31.715 5.41761 63.7127
CA -10.2761 9.43535 69.9366
CA 11.7978 -13.3635 39.3041
CA -23.3057 -18.2726 62.3827
CA 34.325 10.7488 46.0174
CA 17.7396 -15.7569 54.5744
CA -19.5311 -19.8997 75.0431
CA 19.8619 -20.6338 56.9486
CA -7.41085 -19.5073 49.9648
CA -22.8152 -15.1047 24.8792
CA 7.45457 -0.445293 71.9868
CA 1.24378 1.20101 37.116
CA 25.459 -14.6232 51.4504
CA -0.506059 33.1264 24.8639
CA 6.06545 6.70181 15.3741
CA -17.5449 14.6069 73.7222
CA 2.63643 -9.60013 60.682
CA 16.6175 0.559523 67.1864
CA -30.1581 12.1382 55.972
CA -29.1437 22.0288 48.7832
CA 39.3528 -11.4103 56.9043
CA -27.6819 -6.67912 55.011
CA 36.8469 -1.83788 47.3087
CA -17.5885 25.641 65.1642
CA -25.3856 -15.6901 27.1067
CA 34.8903 -7.4098 67.3243
CA 14.5903 19.8917 49.7498
CA -4.18593 5.68741 40.0167
CA -9.08097 17.25 83.5604
CA -21.4727 22.4394 38.7224
CA -15.0718 -3.18649 19.4648
CA -24.3534 10.2298 43.9954
CA -7.71805 24.2863 34.057
CA -16.6559 -6.71796 18.9263
CA 26.493 -1.53358 39.4093
CA -21.4764 5.46396 42.8578
CA -30.2076 -12.2707 43.4619
CA 11.1689 16.8349 77.5721
CA -15.158 23.0323 73.3591
CA -26.9196 -4.0316 44.2563
CA -8.41851 30.1403 57.8032
CA 15.2994 0.5514 72.9941
CA -31.0349 0.267138 50.067
CA -33.9621 -1.27948 65.7215
CA -8.03978 -4.51456 13.7479
CA -8.66685 16.2937 58.7749
CA -9.28423 -8.31062 15.5317
CA -4.69518 25.1926 65.8232
CA -29.6389 19.6005 35.7526
CA -4.60228 9.53607 82.7001
CA 25.8239 3.17578 37.4701
CA 3.5609 8.01062 44.5356
CA 20.4179 -1.15755 60.4879
CA 9.36854 17.0849 76.1625
CA -24.6538 -13.6995 48.1114
CA 22.4297 -9.20953 36.3594
CA 23.4105 15.7948 41.4846
CA 9.52243 -36.5755 45.0137
CA -24.7753 -16.2495 63.5344
CA 2.44871 -33.8259 72.3093
CA 28.7502 26.2407 39.4676
CA 16.5644 -2.6827 81.8719
CA -8.99555 11.7523 51.532
CA 11.5881 -20.0709 23.5453
CA 14.6485 -3.02932 39.6114
CA 27.4137 21.2337 44.9716
CA 25.1009 30.2065 50.4913
CA 33.4946 -14.9287 50.0117
CA 22.9264 3.13835 37.7753
CA -19.3219 -23.0431 45.0001
CA 5.95148 20.9802 39.6416
CA 26.7984 0.360325 25.981
CA -7.62166 -17.2007 77.8433
CA -24.4788 -0.869098 45.0009
CA 13.1352 -3.60205 41.7361
CA -14.6928 18.9175 76.8062
CA 27.8612 22.8135 36.0163
CA 0.862689 -19.0729 74.1796
CA -5.03537 -10.0961 55.6684
CA -0.772941 -30.8241 69.3238
CA -27.0628 11.0084 22.9559
CA 4.20747 -5.09507 17.1587
CA 7.51472 -20.0849 82.5831
CA -21.6004 1.80522 70.3858
CA 25.9578 5.72631 43.5943
CA 6.42719 10.9656 24.085
CA 9.20285 -0.189253 11.077
CA -29.6816 21.8429 44.156
CA 16.9579 27.2043 58.3017
CA -24.9532 16.588 52.0752
CA 23.955 8.61301 24.0577
CA -1.44759 -9.70858 77.8655
CA 20.4335 17.8695 38.6249
CA -0.909927 -13.1372 53.0806
CA -21.2579 -5.45574 58.7272
CA -1.91672 -6.95757 55.1312
CA -25.5881 0.523235 36.1666
CA -26.6915 12.8549 69.9032
CA -24.17 14.3475 68.8377
CA 1.12878 13.4942 20.3939
CA 13.9473 13.0976 22.1094
CA 16.6143 25.2745 52.9424
CA -6.47145 23.9568 29.8019
CA 2.00011 -3.71167 43.6149
CA 32.5639 12.0258 61.4742
CA -3.9101 14.4304 78.2414
CA 0.0863077 -6.06955 36.2124
CA -11.0714 11.5915 30.499
CA -3.42968 12.6021 12.6569
CA -30.5017 -1.27051 56.4806
CA 25.3167 -21.6584 37.3352
CA 23.0618 -0.0720286 39.4156
CA 27.9355 -2.10346 36.2778
CA -8.20081 10.8498 29.7157
CA -5.98385 11.2206 38.1337
CA 23.3316 -27.8244 70.9648
CA 16.2239 -22.79 38.2775
CA -25.2182 -1.55057 69.5268
CA -24.2324 5.21834 74.676
CA 7.55039 17.6619 47.6896
CA 21.7802 19.6338 77.7583
CA 9.35319 34.3156 59.4143
CA 0.324535 -7.40804 51.5135
CA 11.8058 -1.70222 69.5854
CA 17.6734 -3.73664 48.2963
CA 6.43635 15.7156 21.7151
CA 5.01364 -11.0829 24.1617
CA -7.45407 -0.617503 71.6223
CA 30.6601 -13.1716 52.3889
CA 18.4335 -22.0854 40.4567
CA 8.18065 3.10977 34.3176
CA -5.21374 15.7524 83.2355
CA 9.05663 5.7334 28.6442
CA 35.5455 -6.65513 59.8696
CA -20.0271 6.85861 64.1769
CA -9.89327 2.51966 76.4964
CA -7.52323 -15.8181 47.4066
CA -9.4544 -28.3717 50.6406
CA 27.879 2.17836 21.643
CA -19.351 -8.16495 57.9535
CA -28.5923 9.71479 46.4513
CA 12.556 12.2944 20.9696
CA 17.5981 11.7149 62.8235
CA 4.48477 15.536 43.534
CA 31.2262 18.2314 65.3912
CA 4.76464 34.9546 58.7305
CA 16.6677 -1.92671 50.0633
CA -7.00606 24.3323 37.2359
CA 31.839 -1.1553 72.9535
CA -28.3936 -0.740283 54.083
CA -1.71649 12.513 78.0703
CA -30.6522 26.9665 54.8234
CA -2.61296 27.7536 51.84
CA -30.7773 9.57588 78.4968
CA -26.3642 -0.176915 50.2489
CA 7.09048 -30.2774 58.4781
CA -1.79417 5.36896 46.1295
CA -11.622 28.3312 52.1752
CA 29.0029 -3.73884 37.7602
CA -1.72625 26.8324 62.0697
CA -34.2989 18.1168 58.2473
CA 6.27911 7.76263 19.5553
CA -20.3663 23.7944 42.0759
CA -3.45046 6.44636 50.9893
CA -6.19796 -7.0711 54.0978
CA -23.5297 8.12233 40.3409
CA 35.9273 7.37983 44.7589
CA 10.9101 6.41058 32.5993
CA -13.2707 26.5868 50.9568
CA -2.63837 -23.116 19.7945
CA 0.0406602 -16.0541 76.5067
CA 0.202233 -8.13583 71.4644
CA 7.13615 17.3398 40.4924
CA -3.05649 -10.478 25.4264
CA 18.1891 -0.295884 61.6972
CA -27.2713 10.44 45.0331
CA 30.0362 18.8207 49.5006
CA -30.9754 -3.4837 51.1281
CA 2.74162 -1.66651 40.9349
CA -33.7813 -2.69976 35.1688
CA 19.3888 -6.38548 61.7715
CA -1.12728 13.8862 74.7741
CA 25.0656 -12.5959 51.0788
CA -12.6766 0.639857 86.4849
CA 5.68242 9.20962 51.3867
CA -25.2867 -0.744192 42.3233
CA 7.5272 -1.5983 69.5159
CA -18.0877 -0.78595 40.5441
CA 16.2016 -19.3963 34.9036
CA -28.3278 -0.319708 38.4731
CA 2.32217 -18.263 39.5182
CA -3.26837 -33.0822 34.3565
CA -33.1043 -0.902509 56.8184
CA -19.3928 -15.2708 32.8739
CA 1.80797 -13.4693 72.1944
CA 14.6372 7.10235 59.2475
CA -20.9229 -19.0756 77.8287
CA 0.763827 37.642 59.4255
CA -15.5737 -2.73588 58.9503
CA 3.15148 15.0195 22.9189
CA 9.25941 6.7948 49.5133
CA -6.80604 -22.9898 19.4743
CA 4.34823 4.94065 15.9412
CA -7.17092 5.73545 53.3347
CA 19.2368 14.5758 40.1574
CA -0.237264 12.3024 16.2166
CA -26.3605 -10.8634 65.572
CA 27.9228 19.1852 43.9063
CA 35.4137 -1.39492 45.549
CA 20.9254 -30.9359 36.3926
CA -14.7989 -5.45776 12.9045
CA -34.1586 10.1831 53.4893
CA 0.637453 -6.32127 48.3906
CA -15.7187 38.0425 41.6929
CA -3.13812 -11.3597 48.3436
CA -4.40636 9.72241 13.6865
CA -30.7685 -7.2076 68.5097
CA 2.94343 18.0597 24.4562
CA -8.58634 -4.06135 9.9058
CA 5.93843 -32.7612 71.9082
CA 2.71864 13.8649 14.4921
CA -3.35783 -9.99056 69.1951
CA -3.18766 4.75684 38.7952
CA 19.5109 -0.194195 66.1576
CA 1.04133 -18.3797 21.882
CA 16.6114 -4.03148 61.9476
CA 2.76112 6.19262 49.3407
CA 12.5334 8.63669 86.7861
CA 8.84801 6.76036 23.4502
CA 5.37762 -18.717 29.1435
CA 4.58341 -17.3105 40.6518
CA -14.3876 28.37 64.9971
CA -18.3127 2.38902 53.8537
CA 30.511 -1.70998 30.3784
CA -20.2052 11.9761 52.259
CA 11.5282 17.6028 48.6269
CA -3.20552 -34.1895 36.3473
CA 29.0538 -13.1699 63.6382
CA 3.51779 23.6946 37.6806
CA -6.0246 -30.7276 37.1124
CA 13.7044 10.4521 38.1878
CA -21.7952 8.33988 58.3178
CA -15.0753 29.8877 61.0157
CA 2.01532 31.4189 27.1174
CA 20.0823 3.10399 58.8259
CA -23.5225 23.4528 40.6072
CA -6.86413 0.0276984 44.0022
CA -8.46228 14.4929 31.8689
CA -8.97326 -13.5706 49.5095
CA 3.36986 -9.24657 47.3395
CA -11.6608 -23.872 32.3845
CA 20.4195 7.37821 61.1555
CA -5.03305 -30.5499 38.6352
CA -0.099493 5.37572 42.8032
CA 4.7845 13.1357 22.1511
CA 11.2489 20.5932 80.3228
CA -24.6116 13.4831 74.5011
CA 16.8869 -22.016 26.9754
CA -11.8795 -13.5372 59.1308
CA 11.8525 5.3403 44.4346
CA 4.63954 5.32103 38.306
CA -7.25944 -28.5844 30.1635
CA 10.7754 -32.0314 51.4048
CA 1.86799 33.4458 23.7719
CA 1.01663 3.91283 36.3518
CA 1.18714 -14.3815 52.1133
CA 12.614 3.68925 55.241
CA 5.35431 -10.0731 32.1155
