489

CA 27.5105 2.95227 71.6214
CA -9.45509 0.985523 48.1716
CA -7.50172 -18.5829 42.8118
CA 15.2693 -2.21737 79.0791
CA 24.0614 0.325057 63.2712
CA 23.2567 1.02871 40.6155
CA 18.9443 -9.75307 53.0351
CA 8.74537 -17.2365 44.7542
CA -13.7815 1.16452 45.4578
CA -6.95531 -6.07896 34.0087
CA 33.0614 -6.77236 45.4738
CA 26.7414 11.8852 45.0083
CA 28.2074 2.11468 65.3406
CA 11.5728 0.481116 51.8002
CA 25.0034 -9.00848 45.7409
CA 18.6563 -13.8944 77.5886
CA 6.30196 30.1617 36.0048
CA -3.53875 2.8452 48.5314
CA 42.3104 -16.2221 50.6167
CA 17.1852 -12.0813 68.9306
CA 14.2735 12.7507 25.9622
CA 17.2438 -3.77311 52.4596
CA -0.781833 3.49677 47.5352
CA 3.79798 21.4843 87.8816
CA -6.51981 11.7631 47.5833
CA 23.4122 5.37385 56.0033
CA 29.6688 -15.3958 48.5641
CA 3.56936 14.6299 43.3098
CA 21.9505 8.62729 64.7454
CA 22.0462 -3.94631 46.3038
CA -6.98191 -6.67156 44.1908
CA 9.95473 25.3744 37.1163
CA 4.88513 15.054 45.3686
CA 24.3794 10.6854 62.2417
CA 10.7442 -20.1654 74.3496
CA 3.81606 22.2199 20.7971
CA -3.63682 -23.9006 40.8898
CA 18.5855 -6.87589 54.82
CA 20.1485 -21.5339 72.3799
CA 17.7313 0.704099 55.1105
CA 18.4266 0.14707 72.454
CA 27.1803 -14.2977 52.8119
CA 10.1638 -6.46753 62.5539
CA 14.9218 -16.8932 39.9845
CA -2.18189 -2.18942 42.0296
CA 1.54851 8.50848 37.8864
CA -37.3441 7.72005 47.2959
CA 5.13415 19.4513 88.3986
CA 11.1385 -3.0171 53.1521
CA 11.9611 23.9941 42.1074
CA 26.4452 -8.04822 55.3873
CA 4.74502 23.3965 102.849
CA 11.4822 28.2451 37.7381
CA 1.8557 1.49623 38.8658
CA 0.657972 -20.1627 63.9959
CA 23.0194 -0.925905 60.8935
CA 8.87649 -14.9174 46.0893
CA 26.7025 -7.69466 42.5865
CA 6.1691 -10.5375 37.5052
CA 24.9382 -7.50932 43.0221
CA 20.1023 8.25384 25.2084
CA 7.14812 29.0805 38.0232
CA 33.6246 -7.27725 55.6417
CA 6.60066 -1.6429 50.7198
CA 12.7074 -4.04701 59.6848
CA 7.10548 -12.5537 67.0696
CA 3.09395 4.89468 48.0159
CA 35.3446 -19.9569 44.3208
CA 2.22823 -22.1238 62.8254
CA 21.8877 -9.19796 52.7058
CA 5.03866 -5.52002 67.0203
CA 26.1498 -4.74205 61.1217
CA 29.419 5.83507 39.1021
CA 23.8701 13.4573 61.8831
CA 2.01789 -15.37 70.3111
CA 7.00508 -9.89362 66.3121
CA 6.12539 22.7581 99.5962
CA 10.1968 -8.37138 51.5725
CA 1.59262 -0.248108 51.8315
CA 8.33275 -3.55063 25.3473
CA 27.1312 3.18784 66.3887
CA -2.79059 -21.8602 66.4499
CA 28.0846 6.08011 74.7553
CA 14.578 -1.26662 37.791
CA 22.5603 -4.51825 58.8666
CA 30.3125 -16.9986 65.5545
CA 9.51796 -11.3992 67.0261
CA 13.287 -2.8761 41.5866
CA 0.961872 20.5968 17.2069
CA 16.2173 32.6879 38.7892
CA 13.5888 -6.51063 26.3515
CA 25.1398 7.02373 11.1658
CA 14.388 -18.4118 39.0028
CA -1.81398 8.56932 47.0415
CA -1.74549 -30.8136 36.6521
CA 8.02481 -2.77616 66.7538
CA 24.9919 -12.2889 47.7802
CA 27.1117 5.93289 69.4905
CA -14.4091 -28.7092 37.9248
CA 21.2366 -6.60508 62.6419
CA -12.8133 -20.263 33.3531
CA -12.7213 -22.2686 38.1382
CA 23.7524 -0.595021 56.1203
CA 34.2832 -17.9012 52.1513
CA -0.19612 -3.32722 58.524
CA -11.5152 -9.20427 33.7738
CA 4.35043 -1.30979 38.7718
CA -14.2124 -15.0075 34.3469
CA 14.9995 13.4962 19.4805
CA 9.53048 23.578 42.6501
CA 26.1792 0.297199 51.0031
CA 0.902952 10.1413 47.5854
CA 23.8555 9.64366 59.9987
CA 10.2142 20.6139 17.2593
CA -11.4768 -22.5645 40.5699
CA -1.98006 0.466941 43.9354
CA -11.2526 2.50511 44.5931
CA -6.64372 -22.6459 41.5667
CA 24.4197 -14.2228 49.077
CA 8.93837 31.1563 40.1628
CA 3.58927 -16.5377 71.0167
CA 34.6775 -3.42737 55.9092
CA 19.5195 -2.54669 52.3338
CA 23.6053 -3.39877 52.9276
CA 17.1368 12.9943 52.1126
CA 10.1952 19.9156 39.2682
CA 3.69136 23.8231 35.3225
CA 12.29 -20.7523 71.3709
CA 0.873679 12.9846 90.7403
CA 3.97763 -19.1818 60.934
CA 0.69789 24.2349 89.6514
CA 3.70906 17.6138 94.6171
CA 24.7228 -6.28634 51.3062
CA 35.677 -18.2806 45.8734
CA 12.7295 14.7312 25.6406
CA 15.7984 6.29386 69.9801
CA -9.73173 -21.8109 34.5244
CA 15.8646 -18.1405 75.9637
CA 34.1294 -4.73322 53.3959
CA -5.47268 -7.11109 33.96
CA 8.4894 28.0389 40.2127
CA 14.0199 -6.01375 47.3655
CA 21.9952 6.07681 76.2528
CA 18.9992 -19.3508 68.7453
CA -8.01725 -8.58135 39.1899
CA 1.71502 -22.7232 64.9354
CA -2.17256 6.77126 28.669
CA -8.93005 -25.3526 29.9408
CA 15.4231 -20.8388 71.4386
CA 35.8531 -6.79383 54.8795
CA -1.98341 -33.4466 35.0755
CA 1.16646 3.7645 53.6167
CA -2.83975 -5.88642 49.5734
CA 17.7628 -6.9326 33.6808
CA -6.13214 -8.69199 34.5976
CA 42.7358 -17.262 47.8957
CA 13.7865 3.47768 34.0461
CA 35.7166 -13.2648 48.4377
CA 15.9222 -9.39945 60.0185
CA -0.146353 -8.63436 48.9209
CA 18.8131 12.8515 23.0875
CA 14.4653 3.2584 31.0813
CA 0.818903 23.6343 86.1147
CA -4.45895 1.66657 40.9506
CA -0.264972 7.12816 62.5977
CA 16.6521 -12.0207 30.3344
CA 18.5767 -12.9089 54.0671
CA 24.7266 8.05652 56.5553
CA 7.46367 -11.9311 63.6046
CA -1.26951 -5.61592 57.8377
CA 11.307 -0.343523 48.8411
CA -16.0839 2.16373 49.5296
CA 26.304 3.13968 74.1547
CA 18.1917 -1.72134 54.4483
CA 4.74094 -12.6165 67.8012
CA 27.383 -9.85775 54.1119
CA 36.5487 -18.2543 43.878
CA 11.7583 -7.97095 48.2449
CA 15.4295 3.48769 44.9608
CA 6.0806 22.0784 88.5428
CA 46.0183 -13.4366 57.4524
CA 23.3383 10.6772 25.4421
CA 16.7465 -18.2589 70.1403
CA -0.0206129 21.869 90.8312
CA 2.3843 25.0268 90.8093
CA 9.12654 -3.36667 33.033
CA 26.2143 -6.02528 53.0189
CA 4.93889 -4.86038 36.2999
CA 3.5843 -6.01424 37.2656
CA 0.652956 15.317 86.921
CA 6.95239 -13.8275 68.6566
CA 10.8818 1.26721 61.4411
CA 3.61309 -15.6881 64.8096
CA 14.0649 -11.2971 76.0249
CA 12.5682 -15.8289 71.4861
CA 31.997 -20.4651 67.9169
CA 5.64602 -6.79127 35.8778
CA 16.7507 4.4493 64.6332
CA 13.5776 18.6432 43.006
CA 24.4101 4.75495 65.1868
CA 29.1221 -17.047 60.3322
CA -0.580247 -18.3219 65.396
CA -4.28267 13.1828 50.9275
CA 5.45842 1.30468 49.8829
CA 25.5553 -2.27572 49.4519
CA -6.88394 -24.7433 40.6313
CA 19.0625 -7.561 35.288
CA 1.98032 1.86301 52.2338
CA 11.077 -18.1745 70.9901
CA 20.7977 6.73448 55.5672
CA 18.2003 7.25734 71.0863
CA 20.4268 5.37319 66.9111
CA 26.2847 2.03148 65.1025
CA 7.52228 18.3098 12.2824
CA 22.3908 7.1039 22.5769
CA 27.399 -6.55962 68.7226
CA 24.4225 1.94301 38.8464
CA 30.2426 -4.30145 56.9982
CA 27.2048 -0.535526 63.5456
CA 12.944 30.6666 41.3546
CA 0.679858 1.7701 36.5058
CA 10.728 -5.95938 52.1337
CA 4.69114 14.7257 15.9361
CA 15.1989 -6.76933 51.9893
CA 12.7962 19.8307 40.8397
CA 6.14469 14.7284 42.2193
CA 27.3153 -7.11455 51.4104
CA 12.3871 16.6701 35.2053
CA 23.3031 -11.3319 45.279
CA 28.3966 -2.86662 53.9488
CA 19.7577 -15.128 66.9621
CA 23.5575 -11.1474 48.9518
CA -9.78292 0.929222 51.8864
CA -14.4076 -11.3607 34.4738
CA 3.77658 6.68238 55.4121
CA 25.06 6.55633 41.2332
CA 7.40392 12.6838 44.9365
CA -3.70524 -31.442 31.1306
CA 17.6 -3.94921 33.4673
CA 3.58137 27.2734 94.865
CA -19.9162 -20.4442 34.5037
CA 30.1945 -2.71802 55.4011
CA 8.64834 12.6356 16.188
CA 6.59563 -3.17344 28.2936
CA 30.3989 -19.0695 59.886
CA -35.3328 2.86962 51.0612
CA 40.6581 -19.9643 56.4945
CA 32.7601 -18.6889 51.5742
CA 21.2369 -3.00552 69.8496
CA 10.9067 15.0501 17.9927
CA 26.354 9.3555 44.7688
CA 5.72951 -10.9459 69.8011
CA 12.0884 -1.59448 52.3939
CA -5.5275 -27.6089 40.4312
CA 8.0507 8.89329 60.8479
CA 10.2048 -2.65766 29.0402
CA 27.1538 4.82244 73.6646
CA 31.6779 -9.54647 48.0794
CA 21.9254 -0.872361 54.448
CA 7.98737 -10.5201 69.051
CA 8.36936 0.980188 29.0642
CA 16.0122 -4.8217 55.0483
CA 10.8382 -25.6777 35.7837
CA 5.41857 -21.7329 67.9511
CA 38.3478 -17.4761 53.2264
CA 31.0051 -1.43963 52.555
CA 18.5174 -3.85198 73.3826
CA 29.1632 -6.65442 52.9993
CA 16.2369 7.13937 28.4305
CA 6.70338 17.3436 23.8332
CA 27.0168 -11.8232 55.9532
CA 10.1235 -3.20954 44.7944
CA -7.19614 4.62381 50.6888
CA 10.7048 19.4952 15.865
CA 28.5629 -4.3964 65.6308
CA 2.74134 -18.8271 70.1905
CA 24.6461 4.8264 72.4347
CA 24.8887 10.8202 58.7793
CA 40.2404 -15.5096 58.2418
CA 36.4067 -15.7873 58.8255
CA 19.2823 -19.6961 36.1965
CA 7.02468 -8.35729 68.577
CA 6.69083 27.2626 32.6081
CA 28.2542 -7.70574 55.1788
CA -0.997438 22.5418 42.4802
CA 4.04311 -13.9742 71.911
CA -6.6897 7.73321 46.6208
CA 20.0163 -9.46512 59.0414
CA -3.82773 -4.39625 37.9132
CA 9.65212 -18.4778 41.6161
CA -9.73101 2.25814 54.1395
CA -4.25306 -5.78206 35.7958
CA 34.2325 -7.74224 53.1796
CA 15.083 -24.185 72.1456
CA 19.923 8.69509 65.1874
CA 13.9212 12.4895 51.8832
CA -12.3534 -8.3832 39.6373
CA 16.9189 -6.39766 58.7853
CA 9.55767 -6.42683 26.4678
CA 37.5701 -18.903 48.0143
CA 26.2541 -15.6498 51.1402
CA -40.2266 3.90089 46.2889
CA 2.95146 20.8401 79.0349
CA 8.45207 -7.29068 67.3279
CA 1.72112 12.9568 41.1144
CA 44.5146 -16.9247 57.3801
CA 24.4954 1.6907 52.0546
CA 42.6771 -17.3649 52.304
CA -3.84736 -4.7142 53.5303
CA -12.6619 7.37164 48.3888
CA 1.33919 5.684 54.7647
CA 13.7817 -8.83765 31.3327
CA -0.933956 26.9828 34.4747
CA -14.7158 -21.1241 24.2495
CA 21.9376 -1.67572 52.5005
CA 22.3557 10.2416 57.3585
CA 13.1555 5.75269 68.8108
CA 31.5648 -7.20927 49.1377
CA 38.1952 -16.0208 46.703
CA 10.3838 13.5095 17.1566
CA -9.8625 -26.7729 33.2977
CA 22.6959 -9.82207 46.1104
CA 12.8329 -2.49048 46.9817
CA -0.294646 5.85946 53.818
CA 5.15151 20.7045 80.0376
CA 41.1526 -16.4608 48.8808
CA -6.64796 -23.4407 30.9757
CA 27.8034 1.96137 35.2234
CA 5.40667 -24.6666 29.7345
CA 17.9218 -7.33839 50.3212
CA 25.6059 4.45656 39.2908
CA 15.2739 -18.319 35.5142
CA 11.2449 -10.2084 66.3828
CA 22.9411 -1.97559 66.8577
CA 34.9998 -20.0198 54.5219
CA 42.0768 -16.7806 59.3221
CA 2.13942 24.2474 87.1858
CA -9.62812 6.63909 50.2218
CA 13.7847 -2.78342 58.1459
CA 13.3319 -1.45177 50.2188
CA 7.39498 22.6537 107.498
CA 8.25855 25.3385 43.9492
CA 18.4991 9.54534 12.8959
CA 5.49248 16.1073 33.4478
CA 23.9377 6.25531 59.939
CA 20.1267 -14.0112 79.8889
CA -36.2115 6.00471 47.7001
CA 28.8775 -11.1341 51.9882
CA 20.1017 -18.0471 74.2363
CA -2.92463 4.9051 44.9686
CA 15.7088 5.31345 62.7276
CA 27.2676 14.9934 58.4852
CA 25.1061 11.5775 43.8897
CA 37.1201 -14.6488 47.607
CA 25.7689 6.43011 59.4379
CA 21.2271 1.0616 62.11
CA 34.5365 -15.6972 57.8952
CA -3.63674 14.2924 28.7639
CA 17.5046 -18.0954 47.3277
CA -3.30072 9.46517 41.0571
CA 11.3846 -2.78437 60.7418
CA 25.7913 -12.0594 54.4057
CA 9.40436 1.32745 49.4405
CA 10.6809 10.7596 48.6658
CA 12.1965 -7.97533 26.404
CA 4.43196 -10.3259 44.9331
CA 20.1045 -11.8236 70.0252
CA -11.3405 -19.8942 30.5571
CA 0.153525 27.3484 38.211
CA 31.033 -6.27059 45.3231
CA -17.7802 -23.3348 38.3814
CA 23.8932 10.1501 41.3376
CA -6.99754 -7.08908 46.0154
CA 11.7438 19.1978 94.9243
CA 8.36484 -12.4759 23.8188
CA 7.04276 21.3423 103.218
CA -8.03398 -8.98995 36.2903
CA 21.8501 -9.44555 44.5207
CA 11.9042 19.9595 17.7844
CA 25.0284 7.21485 21.8214
CA -12.8402 -27.4864 41.5121
CA 27.2915 -3.22579 63.862
CA 1.61567 7.98706 54.4427
CA 37.1116 -16.9771 57.3413
CA -13.3906 -22.9445 25.1584
CA 7.62125 15.4225 15.2557
CA 31.3446 -9.43802 52.5107
CA 6.95485 23.8274 22.3095
CA 5.99101 -13.1762 41.1602
CA 15.2973 -11.7658 33.125
CA 19.7171 -4.82115 52.3497
CA -13.9423 -20.2572 26.4702
CA 16.1008 3.91552 68.268
CA 9.98922 -13.2555 65.4511
CA 31.6659 -22.5339 50.5292
CA 0.597894 -33.8132 31.3184
CA 18.7474 -19.0177 73.0651
CA -7.86079 6.92669 54.038
CA 9.31499 -2.86136 59.994
CA 31.5255 -6.39124 55.7256
CA 10.6123 4.63526 29.9212
CA -5.70777 -27.1574 34.8419
CA 31.6906 -8.92963 41.5801
CA 25.2813 -4.37769 55.194
CA -2.64961 6.25482 35.9496
CA 12.5533 31.4609 36.5253
CA 4.5605 23.0155 42.6695
CA 22.393 0.568438 56.8098
CA 14.072 1.27423 65.9921
CA 8.88908 -16.0306 71.9001
CA 17.2193 -1.23791 51.5267
CA 25.6341 -5.4368 57.4306
CA 23.2496 -15.785 54.5223
CA 38.9529 -16.1921 49.6687
CA 33.3198 -12.5452 53.2013
CA 16.6318 8.48661 53.2869
CA 12.8204 0.623612 30.9886
CA -6.99632 13.3091 32.2941
CA 5.23628 -21.1682 58.8034
CA 9.0952 -10.2297 23.274
CA -7.46265 3.45596 45.6178
CA -0.431807 -6.81738 56.5539
CA 18.5651 6.8156 66.7684
CA -8.04976 -20.3358 40.56
CA -6.8015 -18.2039 38.9569
CA 7.62025 -1.0654 52.7988
CA 20.4656 -21.7188 66.652
CA 19.0265 -3.54063 76.5368
CA 33.6787 -16.6167 53.9119
CA 14.7737 -4.49907 42.5737
CA -36.9759 6.41639 50.739
CA 20.5717 2.0699 70.9028
CA 20.604 -17.0472 68.5198
CA 26.4183 1.54415 69.6017
CA 11.7725 -13.058 63.9612
CA 33.3866 -13.7571 59.0788
CA 2.96288 3.93542 53.4589
CA 5.60989 19.1224 93.0727
CA -5.94864 11.5713 29.1763
CA 13.921 8.85067 56.7085
CA -7.17997 -27.2699 27.7866
CA -7.2824 7.4021 49.724
CA 22.7251 7.23836 57.8486
CA 11.6605 31.2989 39.57
CA 7.93095 -13.9271 40.1305
CA 15.693 23.9427 15.5454
CA -8.17051 -24.3469 33.6532
CA 22.4353 7.41213 55.2007
CA 28.2437 17.7581 58.1679
CA 21.9432 5.81981 70.1991
CA 21.2118 -0.780968 44.7754
CA 19.965 4.91432 72.1732
CA 14.1097 -2.51637 52.7719
CA 22.189 -19.3343 66.6567
CA 8.57945 18.9054 43.1225
CA 20.7197 2.97126 55.0832
CA -9.86132 6.37003 45.9161
CA 7.10931 13.4256 18.1743
CA 16.3113 -5.17864 49.6222
CA 3.21647 17.5513 46.95
CA 10.4321 13.5921 48.499
CA 25.8167 11.1836 41.8082
CA -4.31442 -32.7709 33.4989
CA 15.3815 -4.29925 58.9935
CA -11.2307 -23.9544 35.2992
CA -2.81772 24.7135 32.7546
CA -12.1499 -12.2652 32.4423
CA 25.7341 -3.31282 71.4717
CA 6.69467 -25.8926 75.1147
CA 2.3362 -16.9003 64.3154
CA 33.2461 -18.4441 62.7463
CA 10.1096 -6.57284 35.5686
CA 25.4193 7.66762 54.0786
CA 2.56097 4.12185 55.2735
CA 21.1622 4.89689 62.3664
CA 22.632 -15.7329 52.7044
CA 6.72595 -7.84627 51.0734
CA -11.5866 6.23141 52.0349
CA 5.71622 25.0723 93.576
CA -17.3003 -26.571 39.7614
CA 21.3131 8.32403 73.093
CA 15.3609 -0.628085 35.4702
CA 14.2094 22.6858 18.0285
CA -7.32315 -26.5443 36.2643
CA 16.3361 -6.72938 77.9385
CA -10.9285 9.75474 49.6306
CA -3.74836 9.67446 31.4197
CA 34.051 -11.6099 62.4793
CA -13.451 -28.9536 40.1929
