489

CA -6.55402 -14.2202 37.4888
CA 14.7173 18.9481 37.4127
CA 7.8342 -3.39845 41.2223
CA -3.3849 9.49273 38.1261
CA 21.8036 0.0788618 64.7358
CA 23.2567 1.02871 40.6155
CA -8.21411 -24.2626 27.9539
CA 10.5043 1.07359 27.5543
CA -13.7815 1.16452 45.4578
CA -6.95531 -6.07896 34.0087
CA 35.3769 -9.69858 59.4149
CA 26.7414 11.8852 45.0083
CA 6.77081 16.3461 27.3738
CA 0.128539 8.20145 47.7314
CA 26.5973 3.83118 41.0823
CA -9.68788 -6.20108 42.0967
CA 4.10184 13.75 41.554
CA -3.53875 2.8452 48.5314
CA 42.3104 -16.2221 50.6167
CA 17.1852 -12.0813 68.9306
CA 9.44728 21.86 44.4456
CA 2.49692 14.9927 47.8831
CA 28.124 -4.10787 48.8331
CA 3.79798 21.4843 87.8816
CA 15.0977 -11.139 68.9589
CA 12.3949 -5.36974 52.7007
CA 14.875 -16.3127 42.1841
CA 3.56936 14.6299 43.3098
CA 2.07642 -12.5616 68.4711
CA 28.0764 -10.7166 47.0795
CA -6.98191 -6.67156 44.1908
CA 12.3955 -11.4879 38.0146
CA 6.19278 26.8513 93.701
CA 17.2588 -15.6332 53.3728
CA 6.61641 13.1481 23.8336
CA 0.125017 27.2551 97.3473
CA 11.5754 -3.49214 52.0878
CA 14.4666 2.39439 49.1738
CA 19.1707 -8.70783 29.5021
CA 0.308479 -8.22512 46.9545
CA 18.4266 0.14707 72.454
CA 12.5804 -6.39584 69.4461
CA 10.1638 -6.46753 62.5539
CA 14.9218 -16.8932 39.9845
CA 15.049 2.13228 67.7443
CA 1.54851 8.50848 37.8864
CA 4.86734 22.3024 100.889
CA 5.62526 -17.2063 71.0554
CA 31.1928 -9.38781 55.2799
CA 8.24843 -10.2925 73.8172
CA 26.4452 -8.04822 55.3873
CA 4.74502 23.3965 102.849
CA 36.0867 -11.4432 49.3246
CA -5.98798 -30.9928 35.1774
CA 7.99025 -2.00441 60.9371
CA -15.5504 -22.7909 22.9437
CA 8.87649 -14.9174 46.0893
CA 30.7214 -4.15739 59.4122
CA 7.82596 19.6748 20.0254
CA 24.9382 -7.50932 43.0221
CA 29.5651 -7.99947 43.1315
CA 33.5855 -19.0068 68.4226
CA 6.94523 -3.04295 55.9047
CA 6.60066 -1.6429 50.7198
CA 3.41244 -23.713 70.6326
CA 7.10548 -12.5537 67.0696
CA 12.4272 -10.7561 69.0424
CA 35.3446 -19.9569 44.3208
CA 12.3117 20.7841 39.3893
CA 33.5414 -10.8737 49.564
CA 8.26921 -4.15312 46.0269
CA 7.25149 20.5727 99.4015
CA 29.419 5.83507 39.1021
CA 44.1421 -18.7238 52.2827
CA 2.01789 -15.37 70.3111
CA 7.00508 -9.89362 66.3121
CA 6.12539 22.7581 99.5962
CA 10.1968 -8.37138 51.5725
CA 7.12274 5.66936 51.3478
CA 36.6134 -20.8223 48.1988
CA 27.1312 3.18784 66.3887
CA -2.79059 -21.8602 66.4499
CA 16.4439 20.5606 19.4351
CA 31.3139 -14.8839 54.0052
CA 36.7773 -19.6866 46.3773
CA 30.3125 -16.9986 65.5545
CA 14.1271 -7.2013 52.127
CA 15.6914 3.76831 33.7868
CA 0.961872 20.5968 17.2069
CA 18.5594 -5.93915 32.7538
CA 2.68482 -2.15348 41.9465
CA 16.8418 -21.1426 70.1697
CA 2.10885 7.81753 53.423
CA -1.81398 8.56932 47.0415
CA -14.0724 0.781245 42.038
CA 9.39846 -3.97413 54.2584
CA 12.9589 0.0379913 56.8988
CA 11.0406 -4.42355 53.6654
CA -14.4091 -28.7092 37.9248
CA 21.2366 -6.60508 62.6419
CA -12.8133 -20.263 33.3531
CA 11.8644 21.7448 37.7466
CA -12.7378 -2.71624 43.7809
CA 3.37429 -8.10832 68.6368
CA -0.19612 -3.32722 58.524
CA -11.5152 -9.20427 33.7738
CA 4.35043 -1.30979 38.7718
CA -14.2124 -15.0075 34.3469
CA 14.9995 13.4962 19.4805
CA 9.53048 23.578 42.6501
CA 26.1792 0.297199 51.0031
CA 7.8417 -2.76964 58.9282
CA -6.4942 -22.1794 40.779
CA 18.6862 -5.22869 49.6238
CA -11.4768 -22.5645 40.5699
CA -1.98006 0.466941 43.9354
CA 40.8953 -17.2329 56.0691
CA 11.2593 -13.5679 46.1637
CA 4.643 -0.894061 56.4717
CA 8.93837 31.1563 40.1628
CA 32.9117 -20.4748 42.7399
CA -5.21833 -5.67557 44.0206
CA 8.18445 23.0467 45.1422
CA 26.5959 10.6119 21.5602
CA 17.1368 12.9943 52.1126
CA 10.1952 19.9156 39.2682
CA -11.4294 -23.8195 22.053
CA 9.61963 -12.7758 43.2947
CA 0.873679 12.9846 90.7403
CA 36.6654 -5.89782 58.1859
CA 0.69789 24.2349 89.6514
CA 0.251599 12.5432 43.4003
CA 17.9357 1.19137 50.4228
CA 23.7818 1.1499 53.7346
CA 10.1114 -1.56063 53.471
CA 12.7066 -6.35535 59.8302
CA 13.6971 -4.64637 29.0241
CA -3.84256 7.66111 37.0051
CA 16.657 -1.51687 57.5745
CA 31.8684 -19.1898 47.7952
CA 5.3169 0.270144 35.1003
CA 14.0199 -6.01375 47.3655
CA 10.268 18.0396 40.4442
CA -9.65497 5.40277 48.7153
CA 34.5159 -9.89308 56.342
CA 1.71502 -22.7232 64.9354
CA 40.3358 -21.0639 44.1325
CA 12.3898 -7.3011 66.0231
CA 18.3636 -10.9981 28.9909
CA 9.87026 -10.1279 28.0674
CA 9.40571 23.2054 36.4419
CA 1.16646 3.7645 53.6167
CA -2.83975 -5.88642 49.5734
CA 12.9696 -15.0092 36.6843
CA 20.0001 -24.2021 72.4056
CA 8.22467 -3.41737 64.5212
CA -1.78533 5.88517 31.9821
CA 35.7166 -13.2648 48.4377
CA 8.65327 -16.3781 72.801
CA 8.08409 8.2336 30.6476
CA 18.8131 12.8515 23.0875
CA -10.6743 -21.6517 38.7023
CA 0.818903 23.6343 86.1147
CA 24.9873 10.2973 64.5136
CA 7.92663 6.23988 28.5243
CA 27.2062 7.39263 72.6488
CA 18.5767 -12.9089 54.0671
CA -5.87323 -4.77469 40.4961
CA 7.46367 -11.9311 63.6046
CA -13.5274 -1.12766 45.4482
CA 35.6825 -8.30461 58.306
CA -16.0839 2.16373 49.5296
CA 1.62962 25.6497 94.1744
CA 18.1917 -1.72134 54.4483
CA 37.0843 -8.11658 52.835
CA 27.383 -9.85775 54.1119
CA 36.5487 -18.2543 43.878
CA 21.4651 -26.5395 65.6052
CA 25.1903 -17.3055 67.8328
CA 3.68844 17.4335 44.8527
CA 39.76 -16.9376 37.6029
CA 23.3383 10.6772 25.4421
CA 16.7465 -18.2589 70.1403
CA -0.0206129 21.869 90.8312
CA 14.1139 -12.5533 44.0871
CA 42.4277 -17.5171 57.013
CA -13.4769 3.78404 49.1061
CA 25.831 -12.3985 52.2288
CA -2.88192 2.64751 43.51
CA 0.652956 15.317 86.921
CA 6.95239 -13.8275 68.6566
CA 14.6437 -22.1699 72.4186
CA 3.61309 -15.6881 64.8096
CA 27.5142 10.8659 56.7139
CA 0.560564 -21.6262 60.9034
CA 27.3614 -5.4557 49.8864
CA 5.64602 -6.79127 35.8778
CA -6.20687 -12.4455 36.0338
CA 13.5776 18.6432 43.006
CA 28.0727 -9.56683 50.4435
CA 16.8906 -23.0237 74.8359
CA 15.1942 1.93302 52.4697
CA -13.7634 0.303019 51.2062
CA -6.79757 -3.9349 45.9044
CA 32.1758 -15.3838 58.0914
CA 29.2435 3.27892 64.0389
CA 12.741 11.9272 19.3002
CA 1.98032 1.86301 52.2338
CA -3.68664 15.8129 46.7282
CA 8.07836 11.798 46.885
CA 27.4167 4.31697 72.8715
CA 1.52818 5.83717 33.0126
CA 26.2847 2.03148 65.1025
CA 29.0705 -7.86688 50.5146
CA 17.1337 14.5895 49.8216
CA 15.8451 -15.331 29.815
CA 24.4225 1.94301 38.8464
CA 30.2426 -4.30145 56.9982
CA 12.8776 -18.067 40.2833
CA 5.50351 -12.3654 65.6729
CA 30.0122 1.79517 70.8802
CA 15.3038 -0.972631 52.5813
CA 4.69114 14.7257 15.9361
CA 15.1076 22.4753 39.0141
CA 12.7962 19.8307 40.8397
CA 0.635344 -8.81918 72.4076
CA 8.04833 17.4142 51.6886
CA 26.8411 -0.959688 58.8614
CA 23.3031 -11.3319 45.279
CA 39.9452 -17.9886 49.9673
CA 7.09522 19.8696 24.8268
CA 38.7514 -20.3759 47.4379
CA -12.2918 -19.7995 42.4002
CA -8.48805 0.177217 54.6127
CA 3.77658 6.68238 55.4121
CA 10.4355 4.627 47.8354
CA 7.96308 10.279 19.2462
CA 2.73974 -2.80087 39.9448
CA 17.6 -3.94921 33.4673
CA 3.58137 27.2734 94.865
CA 7.8837 5.61674 57.164
CA -6.31138 -4.78126 54.0654
CA 8.64834 12.6356 16.188
CA 6.59563 -3.17344 28.2936
CA 25.2226 -4.70497 49.5886
CA 28.9676 -8.94814 52.3812
CA 40.6581 -19.9643 56.4945
CA 22.8222 1.91007 66.9011
CA 21.2369 -3.00552 69.8496
CA 11.4325 -22.5534 72.3112
CA 7.35995 -3.45337 51.426
CA -10.2622 -8.03651 31.6454
CA 12.0884 -1.59448 52.3939
CA -5.5275 -27.6089 40.4312
CA 8.0507 8.89329 60.8479
CA 1.1735 3.22155 50.3874
CA 40.4798 -22.8276 44.6836
CA 31.6779 -9.54647 48.0794
CA 21.9254 -0.872361 54.448
CA 15.0648 -15.0028 46.2341
CA -0.707341 -24.3891 65.3796
CA -6.46803 -6.403 47.6115
CA 16.9136 -12.9044 50.7409
CA 16.9156 -20.7478 37.6414
CA -9.91018 8.78166 49.1445
CA 31.0051 -1.43963 52.555
CA 18.5174 -3.85198 73.3826
CA 13.8127 -4.06837 49.6164
CA 16.2369 7.13937 28.4305
CA 6.70338 17.3436 23.8332
CA 4.57165 -19.618 62.2141
CA 9.25296 -0.47632 49.7004
CA 14.1776 -4.14143 63.4448
CA -17.7693 -29.2837 40.2082
CA 28.5629 -4.3964 65.6308
CA 2.74134 -18.8271 70.1905
CA 7.88805 -18.3187 59.4376
CA 24.8887 10.8202 58.7793
CA 14.1079 6.72526 63.6776
CA 36.4067 -15.7873 58.8255
CA 8.67944 30.2636 43.1703
CA 7.02468 -8.35729 68.577
CA 6.69083 27.2626 32.6081
CA 24.0416 -26.74 68.8667
CA -5.18787 -19.5435 38.8998
CA 34.6437 -14.633 52.4519
CA -6.6897 7.73321 46.6208
CA 20.0163 -9.46512 59.0414
CA -3.82773 -4.39625 37.9132
CA -3.89489 11.1787 52.6283
CA 8.16494 -7.96361 28.9447
CA -13.1012 2.6279 51.1017
CA 26.5939 0.060106 38.71
CA 15.083 -24.185 72.1456
CA 16.3424 -9.44084 53.4719
CA 14.2875 -7.53709 60.0073
CA 9.58383 -4.84906 62.0154
CA 32.9027 -12.157 51.9721
CA 34.6883 -3.16396 58.3206
CA 12.593 12.5818 45.76
CA -11.0414 -19.7566 27.6374
CA -7.27063 4.20107 49.4403
CA 2.95146 20.8401 79.0349
CA 32.1492 -2.87221 46.6268
CA 1.72112 12.9568 41.1144
CA 5.64923 10.7945 28.0737
CA -5.08045 -4.72209 58.142
CA 42.6771 -17.3649 52.304
CA -3.84736 -4.7142 53.5303
CA -12.6619 7.37164 48.3888
CA 10.0505 -12.9982 68.0961
CA -0.977565 13.1207 92.2908
CA 5.41914 6.18256 58.6647
CA 7.82886 12.1982 45.0263
CA 36.347 -16.4625 43.5107
CA 22.3557 10.2416 57.3585
CA 9.28233 -12.5912 65.2471
CA 23.438 -1.64348 57.8936
CA 33.4585 -4.71395 55.3742
CA 10.3838 13.5095 17.1566
CA -14.2125 -26.1172 24.6964
CA 22.6959 -9.82207 46.1104
CA 20.0162 -8.18486 46.8915
CA 22.5127 -10.2298 52.6729
CA 13.6135 4.23714 27.2305
CA 10.0331 -3.96324 42.5979
CA -6.64796 -23.4407 30.9757
CA 25.9865 -4.23259 46.7278
CA 19.3608 -10.8064 75.7285
CA 35.4327 -7.33546 55.7989
CA 25.6059 4.45656 39.2908
CA 15.2739 -18.319 35.5142
CA 14.1579 23.7855 35.584
CA 22.9411 -1.97559 66.8577
CA 34.9998 -20.0198 54.5219
CA 13.2366 22.2353 38.8427
CA 7.08421 -16.7703 67.4721
CA 20.2264 -8.99778 54.3735
CA 14.7263 -13.0316 74.0546
CA 13.3319 -1.45177 50.2188
CA 12.8898 24.9425 12.2754
CA 8.25855 25.3385 43.9492
CA 15.5016 20.7318 46.8123
CA 1.60199 15.368 49.5674
CA 8.68556 -14.5426 64.3214
CA 32.4715 -18.957 52.612
CA 32.1447 -10.7665 46.5463
CA 28.8775 -11.1341 51.9882
CA 13.615 -0.190723 67.6547
CA 35.2005 -23.4792 46.9031
CA 15.7088 5.31345 62.7276
CA 10.3785 21.4188 42.4251
CA -15.6218 7.80638 44.8213
CA 37.1201 -14.6488 47.607
CA 25.7689 6.43011 59.4379
CA 9.09309 -3.16943 56.2578
CA 34.5365 -15.6972 57.8952
CA 29.966 -3.72124 52.2852
CA 38.2663 -6.14406 56.1174
CA -3.30072 9.46517 41.0571
CA 18.8578 15.1344 51.4028
CA 8.51165 -14.367 70.4371
CA 9.40436 1.32745 49.4405
CA 10.3062 6.93526 16.2274
CA 12.1965 -7.97533 26.404
CA -1.28778 4.30416 33.8521
CA 20.1045 -11.8236 70.0252
CA 10.6361 0.222481 46.0404
CA 18.8276 7.36298 69.5691
CA 31.033 -6.27059 45.3231
CA 12.3617 12.2497 48.6689
CA 41.5068 -15.1562 52.844
CA -6.99754 -7.08908 46.0154
CA 11.7438 19.1978 94.9243
CA 8.36484 -12.4759 23.8188
CA -9.77455 -20.6278 43.0018
CA 21.6448 2.03141 53.0663
CA 25.141 -2.23436 67.5827
CA 9.74324 21.1933 36.2681
CA 11.1748 -6.32054 53.7834
CA -12.8402 -27.4864 41.5121
CA 26.2071 7.85708 64.6201
CA -3.57246 -10.1986 32.6676
CA 22.1252 13.0012 21.893
CA -13.3906 -22.9445 25.1584
CA 7.62125 15.4225 15.2557
CA 31.3446 -9.43802 52.5107
CA 5.08297 15.5147 44.6032
CA 5.99101 -13.1762 41.1602
CA 15.2973 -11.7658 33.125
CA 9.9311 -0.0220688 34.0428
CA -13.9423 -20.2572 26.4702
CA 16.1008 3.91552 68.268
CA -6.3874 -25.9265 25.8328
CA -5.51618 -10.4273 35.3943
CA 0.597894 -33.8132 31.3184
CA 18.7474 -19.0177 73.0651
CA -4.25984 11.6009 39.7141
CA 9.31499 -2.86136 59.994
CA 31.5255 -6.39124 55.7256
CA 10.6123 4.63526 29.9212
CA -5.70777 -27.1574 34.8419
CA 22.2001 -11.0726 56.047
CA -10.8024 -24.3215 26.0824
CA -2.64961 6.25482 35.9496
CA 24.751 -23.4854 68.0886
CA 28.5258 -11.6367 48.6592
CA 5.96831 -15.9774 43.0704
CA 14.072 1.27423 65.9921
CA -11.7553 2.83276 46.8411
CA 17.2193 -1.23791 51.5267
CA -17.3816 4.62847 50.316
CA 32.112 -5.50539 51.2221
CA 38.9529 -16.1921 49.6687
CA 27.7771 -8.06036 42.3385
CA 16.6318 8.48661 53.2869
CA 12.8204 0.623612 30.9886
CA -6.99632 13.3091 32.2941
CA -1.16921 11.2034 38.5113
CA 16.7059 -20.5849 74.8292
CA -7.46265 3.45596 45.6178
CA 38.6953 -17.7512 40.1164
CA 4.82084 18.4373 19.6702
CA 19.2644 4.60273 63.1869
CA 36.9496 -2.34224 56.6854
CA 7.62025 -1.0654 52.7988
CA 20.4656 -21.7188 66.652
CA 19.0265 -3.54063 76.5368
CA 12.7762 -3.09034 50.7671
CA -7.7223 -23.4308 36.5949
CA -12.8652 -17.1679 44.9528
CA 14.0619 -8.83731 48.3825
CA 20.604 -17.0472 68.5198
CA 9.07347 17.1157 17.4576
CA -6.51658 2.12558 55.0062
CA 1.40526 1.36101 54.2594
CA 2.96288 3.93542 53.4589
CA 30.0528 -1.78922 68.6153
CA 36.9619 -19.9478 41.6421
CA 9.67445 -8.26812 68.2228
CA -18.4134 3.1771 51.1207
CA 12.2263 -1.44368 30.8652
CA 23.216 11.9313 47.3825
CA 9.85848 14.238 44.2126
CA -7.32657 0.42827 51.9109
CA 4.60467 -2.80002 54.5188
CA -8.17051 -24.3469 33.6532
CA 22.4353 7.41213 55.2007
CA -4.27935 -35.962 33.3779
CA -16.5868 -26.0325 24.0177
CA 21.2118 -0.780968 44.7754
CA 3.49235 10.7603 42.3805
CA -14.5379 -10.3634 36.2466
CA 40.7771 -18.8227 52.1503
CA 8.57945 18.9054 43.1225
CA 20.7197 2.97126 55.0832
CA -9.86132 6.37003 45.9161
CA -10.7784 2.73428 39.5126
CA 16.3113 -5.17864 49.6222
CA 3.21647 17.5513 46.95
CA 10.4321 13.5921 48.499
CA 25.8167 11.1836 41.8082
CA -4.31442 -32.7709 33.4989
CA 20.2034 -0.544349 47.0825
CA 23.2321 -13.4001 54.4818
CA -2.81772 24.7135 32.7546
CA 15.5961 -21.1165 47.9721
CA 25.7341 -3.31282 71.4717
CA 3.88626 17.3773 49.7324
CA 15.3311 -3.98622 75.9222
CA 32.8297 -16.6174 46.4343
CA 24.4671 4.90574 42.5547
CA -8.00911 -20.4962 34.5893
CA 6.10245 4.95785 49.0019
CA 10.597 26.8049 45.8083
CA 2.54495 -6.91292 51.7607
CA 26.4999 1.30446 67.253
CA -1.03865 12.7852 47.6579
CA 5.71622 25.0723 93.576
CA -17.3003 -26.571 39.7614
CA 20.6323 -7.04665 42.1629
CA 15.3609 -0.628085 35.4702
CA -0.0414418 22.5243 83.3565
CA -5.34127 -1.85764 54.9581
CA -7.09492 -26.2254 32.979
CA 1.03332 24.6155 37.0369
CA -3.74836 9.67446 31.4197
CA 34.051 -11.6099 62.4793
CA 28.4206 5.15599 74.63
