489

CA 4.63455 -3.18089 61.0765
CA 14.7173 18.9481 37.4127
CA -2.4102 -34.7399 35.5836
CA 12.2203 0.674162 27.1616
CA 12.2206 8.14059 12.9197
CA -4.67011 -23.5825 29.8144
CA -11.8388 3.89372 44.9054
CA 24.5799 8.15441 59.1348
CA 6.17223 -7.75423 26.6087
CA 22.3344 -12.2753 53.0608
CA 35.3769 -9.69858 59.4149
CA 8.88469 -19.656 57.5018
CA 6.77081 16.3461 27.3738
CA 21.3932 -8.109 70.7171
CA 7.2343 22.347 38.2087
CA -14.4875 -12.1627 39.8206
CA 34.9498 -24.2302 51.8315
CA 21.8823 -11.1241 69.4353
CA 42.3104 -16.2221 50.6167
CA 10.6378 19.178 43.2907
CA 21.6557 -16.1356 75.4192
CA 2.49692 14.9927 47.8831
CA 28.124 -4.10787 48.8331
CA 3.79798 21.4843 87.8816
CA 23.1488 8.82032 58.1419
CA 12.3949 -5.36974 52.7007
CA 14.875 -16.3127 42.1841
CA 37.7314 -17.9104 45.5763
CA 2.07642 -12.5616 68.4711
CA 18.5364 -21.4937 70.0643
CA -15.0786 -24.8926 43.6083
CA 15.7672 0.831598 32.0111
CA 24.3669 -14.44 53.1171
CA 32.1362 -18.8542 55.951
CA -8.32622 -4.51189 44.0573
CA 16.8109 23.5815 36.457
CA 10.8351 15.782 24.4081
CA -10.1024 -2.71103 50.8331
CA 19.1707 -8.70783 29.5021
CA 18.534 -4.13203 68.5568
CA 18.4266 0.14707 72.454
CA 16.3198 -4.58524 52.4407
CA 10.1638 -6.46753 62.5539
CA 29.5489 0.686526 66.1912
CA -8.37469 -7.07328 32.7981
CA 1.54851 8.50848 37.8864
CA 13.2032 -6.4139 54.7706
CA 5.62526 -17.2063 71.0554
CA 34.0611 -15.307 54.3431
CA 9.21005 -3.25325 52.5189
CA 26.4452 -8.04822 55.3873
CA 4.74502 23.3965 102.849
CA 36.0867 -11.4432 49.3246
CA -5.98798 -30.9928 35.1774
CA 38.1236 -9.79901 49.9568
CA 6.01096 0.526579 63.4116
CA -16.1091 -3.90143 41.5188
CA 5.85137 13.7483 43.6366
CA 7.82596 19.6748 20.0254
CA 24.9382 -7.50932 43.0221
CA 29.5651 -7.99947 43.1315
CA 6.86823 -2.7596 53.9461
CA -9.35066 -5.08645 53.5473
CA 6.60066 -1.6429 50.7198
CA 20.6506 -5.23565 41.5764
CA 21.2237 -24.6193 64.0865
CA 4.56707 5.2484 39.7916
CA 13.4968 -7.95806 69.5946
CA 8.08357 8.79799 22.9383
CA 2.06751 -0.126841 39.0556
CA 8.26921 -4.15312 46.0269
CA 7.25149 20.5727 99.4015
CA 18.1244 -6.79538 37.251
CA 19.3454 -12.8862 67.7942
CA 2.01789 -15.37 70.3111
CA 6.98669 -0.0520357 60.9377
CA 14.4679 -11.5423 49.0592
CA 10.1968 -8.37138 51.5725
CA -15.3798 11.6108 48.2753
CA 36.6134 -20.8223 48.1988
CA 14.5933 -15.3329 68.585
CA -2.79059 -21.8602 66.4499
CA 5.94786 -5.22907 55.5974
CA 31.3139 -14.8839 54.0052
CA 18.9874 9.07479 55.5402
CA 30.3125 -16.9986 65.5545
CA 8.26786 16.5574 41.6536
CA 15.6914 3.76831 33.7868
CA 0.961872 20.5968 17.2069
CA 18.5594 -5.93915 32.7538
CA 25.6107 10.6595 56.8212
CA 38.3525 -20.2599 46.4027
CA 2.10885 7.81753 53.423
CA -2.5948 -4.07291 35.3712
CA 19.3373 -12.8496 71.3392
CA 43.0112 -14.6021 54.2727
CA 11.4804 0.865596 51.4318
CA 7.28877 -10.6224 42.3824
CA -3.69405 -39.8687 31.938
CA 12.0661 -12.4773 69.5957
CA 23.8841 -8.82978 73.5953
CA 28.4828 10.136 63.4562
CA -12.7378 -2.71624 43.7809
CA 6.38361 13.5262 18.9314
CA 11.1624 -15.1726 46.6598
CA -11.5152 -9.20427 33.7738
CA 3.76442 2.75467 38.8996
CA 17.4321 -12.4984 43.2665
CA 14.9995 13.4962 19.4805
CA 9.53048 23.578 42.6501
CA 26.1792 0.297199 51.0031
CA 27.6885 -8.13561 43.7834
CA -6.4942 -22.1794 40.779
CA 18.6862 -5.22869 49.6238
CA -11.4768 -22.5645 40.5699
CA 10.4558 -6.55597 27.6841
CA 40.8953 -17.2329 56.0691
CA -9.21805 -24.4513 41.4384
CA 21.0729 -24.8772 67.5481
CA 17.6384 -7.35898 44.5257
CA -13.0539 -11.0641 39.6745
CA -18.7402 5.66495 52.1561
CA 25.7977 -3.75044 54.4951
CA 26.5959 10.6119 21.5602
CA 10.3171 15.9274 43.6557
CA 10.1952 19.9156 39.2682
CA 25.4899 -5.6414 51.5698
CA 13.8594 -9.29909 53.2996
CA -1.04894 -31.7074 35.8498
CA 32.8244 -13.9645 56.4889
CA 0.69789 24.2349 89.6514
CA 0.251599 12.5432 43.4003
CA 17.9357 1.19137 50.4228
CA 23.7818 1.1499 53.7346
CA 10.1114 -1.56063 53.471
CA 5.15981 2.99171 42.4758
CA 13.1901 -0.30281 48.3885
CA -12.0814 5.76248 45.7957
CA -11.9461 7.31663 44.4483
CA -9.53556 4.5155 37.5798
CA -14.8004 -0.114323 40.684
CA 14.0199 -6.01375 47.3655
CA 10.268 18.0396 40.4442
CA 28.0176 9.20398 76.4216
CA 39.6053 -22.4715 46.2781
CA 1.71502 -22.7232 64.9354
CA 3.86211 -8.9063 52.4096
CA 16.1348 6.91108 26.0024
CA 18.3636 -10.9981 28.9909
CA 9.87026 -10.1279 28.0674
CA 8.41096 8.97802 21.1559
CA 1.16646 3.7645 53.6167
CA -2.83975 -5.88642 49.5734
CA 19.9564 -5.87078 47.1969
CA 38.8831 -17.4978 60.2398
CA 8.22467 -3.41737 64.5212
CA -8.16691 -5.83345 40.7944
CA 35.7166 -13.2648 48.4377
CA 15.9283 15.2932 17.5115
CA 8.08409 8.2336 30.6476
CA 6.70618 1.1659 44.4674
CA -10.6743 -21.6517 38.7023
CA 34.0259 -8.00077 54.4641
CA 24.9873 10.2973 64.5136
CA 3.44657 8.35426 38.8165
CA -4.16016 -5.4203 39.9384
CA 4.38798 16.0954 23.8282
CA -5.87323 -4.77469 40.4961
CA 1.95223 8.49409 41.7748
CA -13.5274 -1.12766 45.4482
CA 35.6825 -8.30461 58.306
CA -16.0839 2.16373 49.5296
CA 1.62962 25.6497 94.1744
CA 0.534113 18.1551 47.6185
CA -6.46165 -22.3321 31.2006
CA 27.383 -9.85775 54.1119
CA 6.92891 -14.061 65.2268
CA -3.04605 -37.8297 31.8587
CA 25.1903 -17.3055 67.8328
CA 3.68844 17.4335 44.8527
CA 39.76 -16.9376 37.6029
CA 0.525042 1.18513 51.3994
CA 16.7465 -18.2589 70.1403
CA -5.63011 2.71976 52.9592
CA 14.1139 -12.5533 44.0871
CA 42.4277 -17.5171 57.013
CA -13.4769 3.78404 49.1061
CA 17.6973 -8.11545 32.5246
CA -8.56462 -29.1802 34.8317
CA 11.8441 -4.05607 58.4586
CA 0.988486 0.00330168 56.3739
CA 3.86241 -17.3641 74.4253
CA 3.61309 -15.6881 64.8096
CA 5.08915 -18.8632 71.5683
CA -14.7425 -13.6657 33.1494
CA 8.63245 -0.788391 67.4741
CA 6.97349 10.3485 36.5858
CA -6.20687 -12.4455 36.0338
CA 15.9244 -9.79615 46.1651
CA 12.2643 -11.0073 26.7973
CA 3.40315 15.4274 50.6571
CA 30.0899 12.605 63.2106
CA -8.75984 -31.2909 35.4836
CA 14.0356 -5.19759 58.2776
CA 32.1758 -15.3838 58.0914
CA -8.10434 -34.1663 34.101
CA 4.4216 -5.0701 60.4471
CA 1.98032 1.86301 52.2338
CA 34.8194 -9.64425 52.0945
CA 8.07836 11.798 46.885
CA 27.4167 4.31697 72.8715
CA 1.52818 5.83717 33.0126
CA 0.103234 1.30514 45.4913
CA 29.0705 -7.86688 50.5146
CA 17.1337 14.5895 49.8216
CA 15.8451 -15.331 29.815
CA -4.55715 5.59672 36.8277
CA -8.21299 -16.3475 36.3473
CA 12.8776 -18.067 40.2833
CA 3.36897 -8.12241 49.7286
CA 1.74157 21.8172 96.5381
CA 15.3038 -0.972631 52.5813
CA 4.69114 14.7257 15.9361
CA -11.5085 -28.8381 34.9494
CA 31.8331 -11.8218 59.3794
CA 15.4276 -12.3395 45.4356
CA 14.3977 20.9218 38.0514
CA 10.2876 -19.6777 66.5802
CA 23.3031 -11.3319 45.279
CA -6.23631 -3.80591 49.7392
CA 7.09522 19.8696 24.8268
CA 15.6105 -2.0329 34.6411
CA 17.7769 -9.86877 45.351
CA -4.72658 4.59954 50.2259
CA 20.0691 0.675284 44.0914
CA 10.4355 4.627 47.8354
CA 7.96308 10.279 19.2462
CA 3.58336 -9.59348 60.0732
CA 7.7091 -10.203 71.8324
CA 3.58137 27.2734 94.865
CA 15.4135 -2.84389 51.9547
CA 32.5706 -15.4871 61.3638
CA 8.64834 12.6356 16.188
CA -11.0019 0.18585 39.2235
CA 25.2226 -4.70497 49.5886
CA -11.5624 -2.4872 51.9992
CA 40.6581 -19.9643 56.4945
CA 30.7854 -7.18653 53.414
CA 21.2369 -3.00552 69.8496
CA -11.3852 -24.4339 23.6867
CA 7.35995 -3.45337 51.426
CA 14.8947 18.7114 35.5562
CA 5.16655 19.7317 17.7292
CA -5.5275 -27.6089 40.4312
CA 34.9189 -17.152 45.9609
CA 1.1735 3.22155 50.3874
CA 6.66871 3.91618 56.1064
CA 7.48898 -7.23025 36.5809
CA 17.7969 19.1657 34.2578
CA 15.0648 -15.0028 46.2341
CA -0.707341 -24.3891 65.3796
CA -6.46803 -6.403 47.6115
CA 16.9136 -12.9044 50.7409
CA 8.54138 -5.33907 49.3956
CA -19.4239 -5.66445 39.9202
CA 23.0196 -9.28249 44.8979
CA 28.021 0.246336 73.8542
CA 13.8127 -4.06837 49.6164
CA 16.2369 7.13937 28.4305
CA 6.70338 17.3436 23.8332
CA 4.57165 -19.618 62.2141
CA 22.9234 5.78145 59.5995
CA 14.1776 -4.14143 63.4448
CA 6.1679 29.9895 33.2276
CA 6.26067 2.81801 40.9789
CA 15.7485 -8.0667 29.6852
CA 7.88805 -18.3187 59.4376
CA -8.30346 5.26014 52.8887
CA 7.05474 -5.09559 52.9071
CA 36.4067 -15.7873 58.8255
CA 5.48562 1.73173 59.3206
CA 35.3774 -10.7609 66.7814
CA -3.18596 17.7988 47.0449
CA 24.0416 -26.74 68.8667
CA -5.18787 -19.5435 38.8998
CA 34.6437 -14.633 52.4519
CA -6.6897 7.73321 46.6208
CA 0.0749874 -14.6227 70.0272
CA 8.53116 -1.35758 51.1269
CA 13.5786 -15.2543 26.8808
CA 28.4254 5.89398 67.2117
CA -23.6355 -3.8915 42.0917
CA 12.2207 -19.0179 72.9116
CA 15.083 -24.185 72.1456
CA 20.2035 -24.66 65.7413
CA 14.2875 -7.53709 60.0073
CA 9.58383 -4.84906 62.0154
CA 32.9027 -12.157 51.9721
CA 34.6883 -3.16396 58.3206
CA 38.517 -22.6416 59.2084
CA 21.2102 -14.651 70.4827
CA 24.828 -24.3072 70.71
CA 14.5074 -18.1807 74.5166
CA 14.302 -19.1174 36.8826
CA 10.816 -4.08676 64.7249
CA 5.64923 10.7945 28.0737
CA -5.7699 10.0649 39.662
CA 42.6771 -17.3649 52.304
CA -3.84736 -4.7142 53.5303
CA -3.24748 -6.09901 35.4271
CA 10.0505 -12.9982 68.0961
CA -0.977565 13.1207 92.2908
CA 5.41914 6.18256 58.6647
CA 38.9772 -20.3178 48.8381
CA 19.5758 -14.1414 75.9382
CA 2.78176 17.7133 49.5254
CA 42.1357 -17.7091 38.2428
CA 35.7334 -12.3635 57.536
CA 33.4585 -4.71395 55.3742
CA 15.35 -20.5232 73.0262
CA -14.2125 -26.1172 24.6964
CA 0.774602 13.0641 46.09
CA -10.8784 -3.00768 42.2171
CA 8.82491 15.552 46.2337
CA -11.7565 10.2966 49.3458
CA 10.0331 -3.96324 42.5979
CA 9.364 -10.7112 70.1771
CA 8.64826 -8.71004 72.246
CA 19.2889 -11.0796 47.8368
CA 20.9822 -9.31179 46.8506
CA 1.07609 17.1659 52.8625
CA 27.0545 -3.0918 75.1565
CA 14.1579 23.7855 35.584
CA 39.303 -21.7885 43.8019
CA 7.7555 -7.71921 55.3512
CA -5.40481 -9.03274 39.145
CA 17.46 -1.09715 52.6708
CA 20.2264 -8.99778 54.3735
CA 14.7263 -13.0316 74.0546
CA 22.6484 -9.77296 29.0799
CA 7.88104 29.2703 31.6827
CA 38.4835 -25.6517 47.7963
CA 20.7832 -14.419 30.5387
CA 32.6058 14.1611 65.171
CA -14.9879 4.22036 42.0568
CA 4.72382 8.68335 34.7872
CA 13.9695 -4.06257 32.1932
CA -1.89325 2.49107 56.9334
CA -5.52123 -8.69491 42.5427
CA 26.2734 -11.9805 55.6782
CA 43.065 -21.2681 55.1849
CA 15.0747 -2.1696 45.9982
CA -8.18035 3.57857 38.3964
CA -14.3447 -23.3629 41.7598
CA 27.6368 -6.64907 74.8265
CA 23.4956 -6.86351 55.2997
CA 22.5603 -10.246 48.4234
CA -18.2849 10.3237 49.3619
CA -11.8509 8.31227 46.755
CA -17.0567 9.14732 50.8076
CA 18.8578 15.1344 51.4028
CA 8.51165 -14.367 70.4371
CA 9.40436 1.32745 49.4405
CA -5.38074 -39.0035 32.7067
CA 12.1965 -7.97533 26.404
CA 26.6862 7.6407 40.0408
CA 20.1045 -11.8236 70.0252
CA 13.3165 -3.32605 53.2818
CA 8.96975 16.0393 38.5496
CA 31.033 -6.27059 45.3231
CA -0.0430496 12.2605 96.206
CA 0.0812417 4.288 57.7851
CA 20.5723 -8.8581 51.6436
CA 11.7438 19.1978 94.9243
CA 44.4014 -17.7959 48.3829
CA -1.2165 27.2806 98.5075
CA 40.5417 -17.6572 35.9879
CA 17.4879 -17.4491 73.5606
CA 13.7427 -8.54268 55.3506
CA 11.1748 -6.32054 53.7834
CA 16.592 -2.29933 47.4563
CA -12.2162 -5.67896 45.7376
CA -4.46789 -7.02625 51.8999
CA 28.7024 -8.91423 58.9091
CA -13.3906 -22.9445 25.1584
CA 31.3971 -12.8024 54.7363
CA 2.8704 23.6997 19.2344
CA -2.34033 0.232503 58.8787
CA 25.3998 2.92656 56.6868
CA 15.2973 -11.7658 33.125
CA 9.9311 -0.0220688 34.0428
CA 9.39778 -9.21311 41.5369
CA 16.1008 3.91552 68.268
CA -2.62812 5.09178 39.2467
CA -5.51618 -10.4273 35.3943
CA 30.3215 -15.0332 50.5342
CA 18.7474 -19.0177 73.0651
CA 8.34317 22.3298 100.012
CA 9.31499 -2.86136 59.994
CA 38.2231 -21.6849 49.9917
CA 10.6123 4.63526 29.9212
CA -5.70777 -27.1574 34.8419
CA 22.2001 -11.0726 56.047
CA 39.3429 -16.1498 51.643
CA 37.531 -23.4433 49.9334
CA 24.8114 8.59998 55.4462
CA 21.8269 12.2831 49.5231
CA -16.9762 -9.27584 39.0368
CA -11.7582 3.06517 49.9653
CA 5.10835 15.4705 51.83
CA 12.5847 -2.38332 55.4413
CA -17.3816 4.62847 50.316
CA 32.112 -5.50539 51.2221
CA 14.796 16.0551 97.0893
CA 1.28785 23.4154 75.3632
CA 16.6318 8.48661 53.2869
CA 6.4848 -2.1893 44.4712
CA 18.6723 -20.905 74.1042
CA -1.16921 11.2034 38.5113
CA 16.7059 -20.5849 74.8292
CA 1.51701 -20.373 62.1772
CA 25.1944 5.89721 57.1045
CA 4.82084 18.4373 19.6702
CA 21.4234 17.5985 53.7052
CA 19.9835 0.554263 70.7636
CA 18.7833 -17.4416 76.8351
CA 20.4656 -21.7188 66.652
CA 38.1284 -8.14523 48.9703
CA 5.83543 -4.22342 44.127
CA -8.45359 0.741918 39.0084
CA 22.1647 -1.42728 42.42
CA 14.0619 -8.83731 48.3825
CA 20.604 -17.0472 68.5198
CA 19.9798 -23.312 75.7716
CA 0.532909 26.0914 99.9609
CA 1.40526 1.36101 54.2594
CA 2.96288 3.93542 53.4589
CA 33.8491 -16.8431 63.1328
CA 8.08599 0.382914 63.4032
CA 40.6845 -21.1172 46.8071
CA -18.4134 3.1771 51.1207
CA 12.2263 -1.44368 30.8652
CA 23.216 11.9313 47.3825
CA 9.85848 14.238 44.2126
CA -8.3967 -9.0979 40.1806
CA 4.60467 -2.80002 54.5188
CA 12.8525 16.5901 20.2369
CA 22.4353 7.41213 55.2007
CA -4.27935 -35.962 33.3779
CA 17.8397 -17.4639 79.0597
CA 2.76942 -6.07515 50.2906
CA 36.8015 -20.5253 44.835
CA -14.5379 -10.3634 36.2466
CA 11.3898 -21.3699 68.9148
CA 8.57945 18.9054 43.1225
CA 11.5082 -2.37597 61.9304
CA 26.1171 -11.3264 51.1591
CA -10.7784 2.73428 39.5126
CA 40.4023 -15.4713 56.3813
CA 3.21647 17.5513 46.95
CA 10.4321 13.5921 48.499
CA 25.8167 11.1836 41.8082
CA -4.31442 -32.7709 33.4989
CA 1.19151 28.1917 97.6579
CA 40.1067 -23.2555 57.0879
CA 12.8953 3.93421 29.1085
CA 15.5961 -21.1165 47.9721
CA 42.792 -13.9593 49.1615
CA -11.198 -6.87031 32.0584
CA 18.1177 -11.7459 75.2382
CA 14.1831 -11.7264 66.7175
CA 5.67086 -5.34552 58.8061
CA 8.44026 -15.6463 40.1367
CA 6.94291 8.85446 33.9009
CA -9.10506 5.17085 45.365
CA 0.690923 -13.7556 74.3192
CA 26.4999 1.30446 67.253
CA 37.4468 -17.9339 49.5289
CA 5.71622 25.0723 93.576
CA -6.38921 -31.5037 33.0307
CA 20.6323 -7.04665 42.1629
CA 19.5309 -8.34898 33.8489
CA -7.68243 -19.2355 37.9801
CA 18.6746 26.9712 38.254
CA -2.03946 -32.3482 34.2566
CA -16.7343 -23.8585 43.1248
CA -3.74836 9.67446 31.4197
CA 6.40314 -16.4257 72.7077
CA 28.4206 5.15599 74.63
