489

CA 8.64406 -17.6892 72.8242
CA 14.7173 18.9481 37.4127
CA -2.4102 -34.7399 35.5836
CA 12.2203 0.674162 27.1616
CA 12.2206 8.14059 12.9197
CA 31.0294 -5.07355 45.6644
CA -11.8388 3.89372 44.9054
CA 24.5799 8.15441 59.1348
CA 6.17223 -7.75423 26.6087
CA 22.3344 -12.2753 53.0608
CA 2.86162 1.04498 44.2715
CA 8.88469 -19.656 57.5018
CA 6.77081 16.3461 27.3738
CA 6.62596 8.6308 28.6519
CA 7.2343 22.347 38.2087
CA -14.4875 -12.1627 39.8206
CA 34.9498 -24.2302 51.8315
CA 21.8823 -11.1241 69.4353
CA 14.9987 13.986 49.5256
CA 10.6378 19.178 43.2907
CA 21.6557 -16.1356 75.4192
CA 2.49692 14.9927 47.8831
CA 21.3756 -7.6548 39.6624
CA 26.1221 -7.57222 56.7005
CA 18.0116 -5.13863 63.3978
CA 12.3949 -5.36974 52.7007
CA 14.875 -16.3127 42.1841
CA 37.7314 -17.9104 45.5763
CA 19.7966 -13.5683 73.7649
CA 18.5364 -21.4937 70.0643
CA 39.1043 -18.226 56.5689
CA 14.9853 19.5689 31.9451
CA -16.524 4.44934 50.0259
CA 13.6947 -0.710344 49.7923
CA 10.9128 16.3693 18.7911
CA 16.8109 23.5815 36.457
CA 21.5882 -27.3567 63.3914
CA -12.7513 1.03599 41.5886
CA 23.4925 -0.913991 70.0137
CA 10.9306 -18.2484 43.7401
CA -13.163 -15.0174 34.3466
CA 4.07222 15.8412 44.0369
CA -0.570754 2.5842 60.0127
CA 5.25962 -0.617784 41.0198
CA -8.37469 -7.07328 32.7981
CA 21.2071 -7.31692 36.14
CA 43.8213 -15.2192 56.8907
CA 7.68034 19.2207 36.4624
CA 34.0611 -15.307 54.3431
CA 9.21005 -3.25325 52.5189
CA 9.86641 18.1668 38.3653
CA 8.61161 9.91299 37.744
CA 6.7947 9.77762 34.7299
CA -5.98798 -30.9928 35.1774
CA 9.55448 3.92787 49.8988
CA 21.422 -10.7181 46.0963
CA 17.9669 -6.28797 72.0815
CA 5.85137 13.7483 43.6366
CA 14.546 17.5238 17.6432
CA -14.7614 -20.6739 41.395
CA 29.5651 -7.99947 43.1315
CA 0.282559 -17.7517 63.3716
CA -9.35066 -5.08645 53.5473
CA -2.53813 -29.6185 28.7552
CA 10.0211 -4.89822 52.5121
CA 21.2237 -24.6193 64.0865
CA 5.56214 -14.5148 36.2718
CA 13.4968 -7.95806 69.5946
CA 15.0488 -13.3522 65.6758
CA 5.87458 24.3055 36.8838
CA 8.26921 -4.15312 46.0269
CA 7.25149 20.5727 99.4015
CA 11.3881 16.8454 99.8586
CA 41.5594 -19.2071 55.6291
CA 16.2193 -16.3051 72.4004
CA 2.96061 29.4051 96.9254
CA -7.67667 -23.6651 32.8725
CA -16.8796 14.1454 47.2073
CA -15.3798 11.6108 48.2753
CA 22.2889 -6.12192 34.0441
CA 1.82167 -14.8082 68.2954
CA 17.9767 -10.0159 51.2868
CA 5.94786 -5.22907 55.5974
CA 39.3068 -19.4431 30.8991
CA 6.51114 7.25091 49.2578
CA 12.3791 16.4286 15.4684
CA 13.2068 1.83803 48.6201
CA 15.6914 3.76831 33.7868
CA 38.6165 -19.876 44.6894
CA -9.75738 -9.88129 34.4527
CA -13.6175 -8.62323 35.2671
CA 23.8647 7.68284 43.0984
CA -14.0346 1.1957 55.6059
CA 1.75399 0.730056 40.6734
CA 12.955 -18.2837 71.2198
CA 19.4451 -22.5496 47.315
CA 36.1097 -15.5447 58.2368
CA 5.58325 21.7295 50.5449
CA 12.0623 15.4886 33.6761
CA 5.33479 6.21523 31.8172
CA 15.3369 15.273 34.2954
CA 28.4828 10.136 63.4562
CA 46.1064 -14.7613 54.3993
CA 6.38361 13.5262 18.9314
CA -1.20019 2.90755 34.8747
CA -11.5152 -9.20427 33.7738
CA 3.76442 2.75467 38.8996
CA 31.8201 6.55927 63.6125
CA 8.22955 -0.54153 42.1268
CA -18.1015 3.27054 49.2897
CA 3.13821 8.92495 27.7509
CA 26.5455 2.74203 74.1535
CA 40.6179 -20.0678 58.7061
CA 20.5726 -1.56644 47.6642
CA 9.39417 1.43718 52.3293
CA 10.4558 -6.55597 27.6841
CA 40.8953 -17.2329 56.0691
CA 31.3131 -13.2332 57.9983
CA 21.0729 -24.8772 67.5481
CA 17.6384 -7.35898 44.5257
CA 30.8026 8.88475 64.0105
CA 17.1684 -23.8012 44.97
CA 25.7977 -3.75044 54.4951
CA 4.04922 -18.0459 67.0065
CA -17.8556 0.143975 40.4087
CA 10.1952 19.9156 39.2682
CA 25.4899 -5.6414 51.5698
CA 11.5203 1.16558 49.5316
CA 11.7554 29.2502 29.6155
CA 30.3492 0.737883 73.6946
CA 0.69789 24.2349 89.6514
CA 12.2941 -10.5447 55.7897
CA 12.1109 -19.2666 77.449
CA 23.7818 1.1499 53.7346
CA -5.92462 -5.11917 33.2173
CA 5.15981 2.99171 42.4758
CA 19.0168 22.6126 32.1746
CA -0.0284838 -33.4624 33.1559
CA 15.0874 -15.1123 46.6741
CA -9.53556 4.5155 37.5798
CA 19.9546 -6.6046 39.246
CA 18.0255 -1.19337 40.9976
CA 36.7763 -14.0899 45.0341
CA 5.23132 -10.0293 52.8669
CA 17.4967 -8.72925 38.399
CA 1.71502 -22.7232 64.9354
CA 3.86211 -8.9063 52.4096
CA 16.1348 6.91108 26.0024
CA 18.3636 -10.9981 28.9909
CA 1.13084 13.4321 88.5702
CA 5.91394 14.5493 20.7935
CA 1.16646 3.7645 53.6167
CA -2.83975 -5.88642 49.5734
CA 19.9564 -5.87078 47.1969
CA 38.8831 -17.4978 60.2398
CA 8.22467 -3.41737 64.5212
CA 22.3409 -3.66779 45.5844
CA 35.7166 -13.2648 48.4377
CA 20.3569 -1.09163 53.5174
CA 8.08409 8.2336 30.6476
CA 16.3275 -5.42968 41.966
CA -10.6743 -21.6517 38.7023
CA 5.83455 -0.742777 48.4897
CA 11.2881 -3.05511 50.7768
CA 3.44657 8.35426 38.8165
CA 28.7663 -2.33428 69.4982
CA 0.6078 -0.858446 35.7113
CA -5.87323 -4.77469 40.4961
CA -4.68449 -17.7812 40.8954
CA 10.8603 -23.5668 59.1875
CA 35.6825 -8.30461 58.306
CA -16.0839 2.16373 49.5296
CA 13.2648 -18.4216 75.8499
CA 37.0744 -16.2361 49.1518
CA -6.46165 -22.3321 31.2006
CA 13.8536 17.0993 32.9988
CA 13.1741 7.0355 35.7801
CA 3.39408 -5.54478 52.4885
CA 25.1903 -17.3055 67.8328
CA 5.64888 33.7744 34.6119
CA 39.76 -16.9376 37.6029
CA 14.1674 6.30664 48.0227
CA 16.7465 -18.2589 70.1403
CA 18.1882 -24.0805 63.6976
CA 14.1139 -12.5533 44.0871
CA 12.6865 13.9352 19.3705
CA 9.58994 -10.4244 61.2286
CA 17.2909 3.81638 48.2942
CA 32.1296 -10.8317 54.0067
CA 11.8441 -4.05607 58.4586
CA 0.988486 0.00330168 56.3739
CA 3.86241 -17.3641 74.4253
CA 3.61309 -15.6881 64.8096
CA 5.08915 -18.8632 71.5683
CA -14.7425 -13.6657 33.1494
CA 8.63245 -0.788391 67.4741
CA -1.95542 0.716875 51.7713
CA 18.4604 16.4106 32.261
CA 15.9244 -9.79615 46.1651
CA 19.9234 -24.9223 62.0906
CA 13.0687 11.3963 14.5389
CA 30.0899 12.605 63.2106
CA 25.4679 -8.02457 44.9431
CA 26.1036 -1.8518 67.8358
CA 32.1758 -15.3838 58.0914
CA -8.10434 -34.1663 34.101
CA -7.12071 -21.4346 35.0651
CA 1.98032 1.86301 52.2338
CA 14.8017 -6.49893 64.8327
CA 8.07836 11.798 46.885
CA 27.4167 4.31697 72.8715
CA 1.52818 5.83717 33.0126
CA 23.9652 -0.363042 52.3608
CA 29.0705 -7.86688 50.5146
CA 18.4787 -22.4255 67.3611
CA 15.8451 -15.331 29.815
CA 1.81723 -8.51718 68.0592
CA 10.0446 6.0126 47.5998
CA 12.8776 -18.067 40.2833
CA 3.36897 -8.12241 49.7286
CA 14.5588 2.85783 45.7993
CA 30.5766 -9.81369 44.0124
CA 5.94101 21.6603 36.8871
CA -11.5085 -28.8381 34.9494
CA 4.92282 6.88378 26.419
CA 17.976 -0.629844 32.7712
CA 28.3739 -11.9786 56.5572
CA 10.2876 -19.6777 66.5802
CA 23.3031 -11.3319 45.279
CA 40.358 -20.5946 51.955
CA 0.538973 -12.1174 66.8488
CA 15.6105 -2.0329 34.6411
CA 14.0459 -6.3978 50.1411
CA 21.0026 8.72139 44.5889
CA 20.0691 0.675284 44.0914
CA -8.59178 -5.61687 57.0254
CA 0.198791 10.8898 89.1866
CA 19.3731 -12.2681 44.7101
CA 3.52642 1.19934 60.8288
CA 3.58137 27.2734 94.865
CA 18.8915 -8.32239 67.7
CA 32.5706 -15.4871 61.3638
CA 5.23227 -17.0392 34.0825
CA 40.5803 -19.1473 35.0326
CA 13.14 -15.4139 41.556
CA 18.0472 -11.8729 71.8445
CA 16.2731 -0.53038 31.6264
CA -4.32788 -25.3968 34.387
CA 21.2369 -3.00552 69.8496
CA -11.3852 -24.4339 23.6867
CA -11.0939 -12.7432 30.6888
CA 14.8947 18.7114 35.5562
CA -13.24 -4.86875 55.3945
CA 33.9638 -15.3824 59.7751
CA -10.0508 -4.4412 42.2742
CA 19.426 -10.2788 69.1498
CA 6.66871 3.91618 56.1064
CA 9.90235 -18.5078 46.5206
CA 17.7969 19.1657 34.2578
CA 2.69108 -3.3621 53.2392
CA -0.707341 -24.3891 65.3796
CA -6.46803 -6.403 47.6115
CA -9.77823 -16.2601 35.1482
CA 8.54138 -5.33907 49.3956
CA 3.29353 -2.9969 46.6893
CA 28.5032 3.65678 69.8601
CA 32.9747 -17.8649 61.2565
CA 6.11901 -3.46373 67.5341
CA 18.627 -3.98136 52.4586
CA 6.70338 17.3436 23.8332
CA 5.15703 23.5474 40.2695
CA 2.13617 7.36887 25.854
CA -6.75744 -33.5923 35.2487
CA 6.1679 29.9895 33.2276
CA 26.0668 3.90991 53.532
CA 13.7468 -9.76987 71.309
CA 20.2711 -10.1177 33.5107
CA 4.37079 -3.80955 49.0196
CA -8.38681 -19.2719 33.3598
CA 36.3715 -19.2987 47.0094
CA 2.50633 11.4386 31.1679
CA 1.05894 2.42311 39.4477
CA -17.3406 -0.739319 48.5147
CA 13.9986 13.4506 34.4164
CA -5.18787 -19.5435 38.8998
CA 34.6437 -14.633 52.4519
CA -6.6897 7.73321 46.6208
CA 36.9283 -13.6544 57.6183
CA -7.73247 -3.70597 42.4202
CA -12.8183 -10.6072 39.3076
CA 28.4254 5.89398 67.2117
CA -23.6355 -3.8915 42.0917
CA 3.77774 4.91556 51.0797
CA 5.15837 26.5571 31.7473
CA -16.7394 4.90924 52.1423
CA 14.2875 -7.53709 60.0073
CA 20.5478 -14.3408 68.2601
CA 32.9027 -12.157 51.9721
CA 38.8601 -27.71 54.1267
CA 24.5048 -7.47251 51.4416
CA 37.9659 -16.0808 54.0291
CA 24.828 -24.3072 70.71
CA -1.55811 -0.613754 60.8661
CA 8.44783 -18.3569 38.1091
CA 29.9831 16.6812 61.8413
CA 5.64923 10.7945 28.0737
CA 9.15426 7.23955 17.285
CA 1.26836 -29.5009 31.2912
CA 5.99879 21.7198 25.6526
CA -3.24748 -6.09901 35.4271
CA -0.0949306 -32.5842 31.434
CA 13.3416 2.39176 32.1058
CA 5.63648 3.61609 48.4001
CA -0.508422 -29.8749 33.0613
CA 3.68187 7.11001 31.4574
CA 6.18062 19.1284 50.2709
CA 35.9872 -14.9468 55.1528
CA 22.4341 -7.35834 72.1268
CA 33.4585 -4.71395 55.3742
CA 15.35 -20.5232 73.0262
CA -4.13313 -5.40083 45.956
CA 3.66939 -13.5916 33.8454
CA 0.633298 8.5701 29.2702
CA 5.07414 1.3657 40.6202
CA 5.89145 -6.5828 61.4276
CA 29.4866 0.724844 69.1785
CA 41.2739 -19.2807 48.2805
CA 35.7635 -16.4741 60.2264
CA 24.0219 -15.4011 38.8228
CA 3.71121 -15.5257 71.1914
CA 12.4863 20.0967 39.1301
CA 27.0545 -3.0918 75.1565
CA 0.665358 -37.0767 33.3772
CA 34.0594 -17.7059 44.8196
CA 14.2673 7.80193 55.8725
CA 40.291 -25.2938 52.5162
CA 27.7973 -16.1438 40.9033
CA 20.2264 -8.99778 54.3735
CA 32.1356 12.246 63.5761
CA 22.6484 -9.77296 29.0799
CA 7.88104 29.2703 31.6827
CA 16.4694 -18.7874 75.6317
CA 22.625 -6.66238 69.1019
CA -6.15941 -8.8861 47.9165
CA -1.30917 3.9053 41.0068
CA 4.72382 8.68335 34.7872
CA 13.9695 -4.06257 32.1932
CA -1.89325 2.49107 56.9334
CA -5.52123 -8.69491 42.5427
CA 26.2734 -11.9805 55.6782
CA 43.065 -21.2681 55.1849
CA 3.358 -13.3451 55.6004
CA -8.18035 3.57857 38.3964
CA -14.3447 -23.3629 41.7598
CA 27.6368 -6.64907 74.8265
CA -17.3255 -23.386 21.3752
CA 7.74741 1.16594 28.555
CA 5.50849 1.80179 28.8694
CA -9.71543 6.52616 35.4338
CA -17.0567 9.14732 50.8076
CA 13.2513 -15.3436 79.8556
CA 8.51165 -14.367 70.4371
CA 27.5998 -11.391 52.5592
CA 24.2208 -6.06214 53.6152
CA 12.1965 -7.97533 26.404
CA 26.6862 7.6407 40.0408
CA 20.1045 -11.8236 70.0252
CA 13.3165 -3.32605 53.2818
CA 17.7655 -13.7778 71.5843
CA 16.0483 14.4701 98.705
CA 13.4152 -16.0213 43.3758
CA 25.312 -6.7028 40.0683
CA 20.5723 -8.8581 51.6436
CA 11.7438 19.1978 94.9243
CA 44.4014 -17.7959 48.3829
CA -1.2165 27.2806 98.5075
CA 42.7288 -21.8226 47.7592
CA 17.4879 -17.4491 73.5606
CA 14.9641 -16.7757 70.7939
CA 0.0284409 17.5499 45.4055
CA 16.592 -2.29933 47.4563
CA 15.5765 -17.6776 44.3953
CA -4.46789 -7.02625 51.8999
CA 28.7024 -8.91423 58.9091
CA -13.3906 -22.9445 25.1584
CA -2.49773 -34.5998 32.688
CA -13.1912 -22.808 27.4189
CA 16.256 12.1599 94.1851
CA -2.01001 -4.36212 43.8095
CA 18.2271 23.3003 34.3345
CA 9.9311 -0.0220688 34.0428
CA 20.9124 -8.459 69.0163
CA 17.0018 1.75889 34.6281
CA 9.29789 -2.008 27.7081
CA 15.7958 -2.1586 50.9868
CA 30.3215 -15.0332 50.5342
CA -16.7152 -21.8707 23.1909
CA -6.35666 -7.46279 39.6232
CA 12.5611 -6.18545 57.3702
CA 40.8001 -18.5098 40.9348
CA 9.86478 17.392 20.7307
CA -5.70777 -27.1574 34.8419
CA 25.9885 10.6106 46.2557
CA 18.0189 7.86361 45.6385
CA 0.893116 10.1703 23.7968
CA 15.5698 17.6705 33.8233
CA 24.9985 -10.4059 46.3371
CA -16.9762 -9.27584 39.0368
CA -11.7582 3.06517 49.9653
CA 26.6819 1.6555 54.8125
CA -2.27462 18.2601 44.656
CA 12.1395 -0.390557 53.3987
CA 32.112 -5.50539 51.2221
CA 14.796 16.0551 97.0893
CA 12.2618 4.86957 45.8164
CA 16.6318 8.48661 53.2869
CA 6.4848 -2.1893 44.4712
CA 29.0419 -4.12112 40.9169
CA 16.1081 -19.8372 69.546
CA 11.0617 -3.01189 28.5807
CA 34.5719 -14.8737 57.4734
CA 25.1944 5.89721 57.1045
CA -3.61067 -7.62758 42.1408
CA 40.3241 -24.2002 47.702
CA 5.66891 -2.67658 42.1745
CA 18.7833 -17.4416 76.8351
CA 20.4656 -21.7188 66.652
CA 7.88574 -15.7935 37.9296
CA 14.1911 4.12272 32.1597
CA -8.45359 0.741918 39.0084
CA 15.3272 -7.75045 45.0861
CA 45.1651 -20.6565 53.2616
CA 7.04115 19.2385 40.8212
CA 17.0019 21.1189 33.0237
CA 18.0201 1.18758 46.1168
CA 15.9352 -18.1038 78.297
CA 9.26001 2.86499 47.0351
CA 7.1973 -17.4656 41.5432
CA -10.9232 -19.6449 30.1162
CA 40.6845 -21.1172 46.8071
CA 41.8291 -27.2926 53.0732
CA 2.98372 10.1079 39.9059
CA 23.216 11.9313 47.3825
CA -17.0435 -1.26582 43.9743
CA -5.03584 -35.9912 31.681
CA 8.48031 1.16351 47.8046
CA 18.4165 -16.6775 69.8764
CA 22.4353 7.41213 55.2007
CA 29.6373 -6.1487 37.7817
CA 17.8397 -17.4639 79.0597
CA 2.76942 -6.07515 50.2906
CA -18.6675 11.7524 45.9049
CA 24.0291 -10.2774 52.2244
CA 26.4477 -11.4061 42.7239
CA 8.57945 18.9054 43.1225
CA -7.582 -6.08344 38.9773
CA 26.1171 -11.3264 51.1591
CA 15.0097 1.7967 56.5237
CA 40.4023 -15.4713 56.3813
CA 5.17241 2.49379 67.8518
CA 10.4321 13.5921 48.499
CA 12.8158 5.54506 50.125
CA 3.62954 -23.0731 64.7884
CA 8.70084 0.748357 32.7322
CA 40.1067 -23.2555 57.0879
CA 12.8953 3.93421 29.1085
CA 15.5961 -21.1165 47.9721
CA 42.792 -13.9593 49.1615
CA 44.507 -17.8529 46.3247
CA 18.1177 -11.7459 75.2382
CA 14.1831 -11.7264 66.7175
CA 5.67086 -5.34552 58.8061
CA 8.44026 -15.6463 40.1367
CA 9.25956 -1.52793 31.5322
CA -10.045 7.35509 42.4224
CA 0.690923 -13.7556 74.3192
CA 26.4999 1.30446 67.253
CA -6.65688 -29.3593 34.6302
CA 3.92733 -0.201411 47.9651
CA 19.6172 -23.0881 65.6814
CA 8.04814 21.695 42.9821
CA 5.37271 15.4172 45.2682
CA -7.68243 -19.2355 37.9801
CA 8.73211 3.96607 18.6575
CA 11.6457 -7.48772 60.0581
CA -16.7343 -23.8585 43.1248
CA 14.1166 -8.43885 42.6321
CA 15.9727 -23.8621 52.8697
CA 33.4139 -13.0781 54.7278
