489

CA 17.3587 8.40266 50.3448
CA 14.7173 18.9481 37.4127
CA -8.30155 -8.00029 42.6076
CA 11.006 13.0474 35.214
CA 1.57271 -6.66691 26.7447
CA 14.438 3.63651 48.9386
CA 12.9144 11.9779 20.3992
CA 41.4597 -19.242 56.7039
CA -0.294455 -0.62194 41.7164
CA 3.68631 1.29941 49.3979
CA 19.5366 7.79459 52.855
CA -19.1405 -19.9419 36.0249
CA 33.8593 -12.6848 51.4386
CA -1.84594 -6.63999 56.9444
CA 17.7663 1.49208 36.3456
CA 14.4961 -4.9272 51.4977
CA 34.3338 -14.1352 48.1864
CA 21.8823 -11.1241 69.4353
CA -12.6806 5.18699 41.9243
CA 14.1614 -12.0609 69.4691
CA 21.6557 -16.1356 75.4192
CA 17.069 10.7691 53.1844
CA 41.9873 -23.6437 53.5127
CA 27.9691 -14.8933 44.2916
CA 30.9976 8.32056 66.2385
CA 12.3949 -5.36974 52.7007
CA 14.875 -16.3127 42.1841
CA 14.1698 0.969686 32.9418
CA 26.2758 3.44215 57.1764
CA -22.5287 -13.1096 37.2137
CA 39.1043 -18.226 56.5689
CA 4.24839 9.7162 32.1192
CA 26.9968 4.76849 41.5486
CA 6.26182 7.45676 41.4909
CA 17.1954 -7.37234 69.4576
CA 25.5166 9.64099 65.5399
CA 25.3215 4.68207 51.5569
CA 30.1432 5.45907 72.8645
CA -10.3509 -17.1088 37.4558
CA 0.834854 0.620337 63.168
CA -13.163 -15.0174 34.3466
CA 16.8776 -22.6447 54.4707
CA -15.6693 -11.2494 36.2468
CA -9.92447 -3.4277 43.4007
CA 28.9882 1.86546 57.6477
CA 14.7127 9.97025 30.8608
CA 26.5361 -22.3332 71.3374
CA -8.81148 6.77632 41.1876
CA 15.8938 5.75441 56.3392
CA -4.58347 -8.96831 43.2897
CA 12.5645 17.3812 40.6584
CA 8.61161 9.91299 37.744
CA 6.7947 9.77762 34.7299
CA 20.3083 3.1911 45.6223
CA 1.87758 14.3169 36.1552
CA 21.422 -10.7181 46.0963
CA -6.31412 -30.5822 34.3291
CA 15.9895 11.36 21.653
CA 7.23357 -15.6963 80.3189
CA 36.2982 -13.1957 50.899
CA 17.1081 18.0416 37.524
CA 26.583 -9.94439 55.016
CA 14.4094 2.29484 51.988
CA 18.7834 -3.64253 31.9033
CA 3.8094 15.2276 17.3992
CA 19.4967 5.15643 51.4267
CA 15.7724 10.3399 42.8605
CA 33.0517 -11.2052 49.2181
CA 42.735 -24.2104 36.6914
CA -17.7527 6.24929 45.4107
CA 8.26921 -4.15312 46.0269
CA 30.6056 -14.8663 44.2803
CA 14.5957 -8.28674 64.9646
CA 9.80086 14.8667 46.3158
CA -1.50716 -16.4805 42.8927
CA 11.8713 10.3677 19.1589
CA -7.67667 -23.6651 32.8725
CA 10.5334 31.7316 30.9375
CA -15.3798 11.6108 48.2753
CA 40.0556 -17.3329 33.3024
CA 1.82167 -14.8082 68.2954
CA 1.11147 -6.84934 24.5533
CA 17.9071 -17.5133 71.4664
CA 21.331 -26.447 64.9313
CA 44.8132 -18.1802 56.7533
CA -18.1593 18.2614 44.4645
CA -12.4211 8.99655 32.1381
CA 7.53729 3.72467 68.4126
CA 13.9674 -22.9405 70.2512
CA 8.47894 8.22528 50.6827
CA 11.2693 29.3961 29.895
CA 23.8647 7.68284 43.0984
CA 13.9185 10.3386 27.9002
CA 1.78797 -9.00027 24.3962
CA 0.57412 23.9739 90.1958
CA 28.0342 -5.94378 59.8946
CA -1.12091 -29.4967 33.1662
CA 13.1262 7.31473 32.3353
CA -13.4575 8.54471 35.1711
CA 15.9334 -3.36252 64.1982
CA 9.225 7.78273 35.7208
CA 36.144 -18.7457 58.7165
CA 8.44612 18.6462 44.9851
CA 6.38361 13.5262 18.9314
CA 25.249 6.33724 63.8404
CA 18.2489 -12.2553 51.1699
CA 4.68087 -15.3723 69.9683
CA 33.8889 -5.71434 50.5457
CA 12.6667 -3.37755 49.7865
CA 22.6795 -12.3219 72.4197
CA -4.11912 -31.6105 30.5441
CA 0.35978 -14.1166 67.1827
CA 21.4025 2.01244 42.8139
CA 1.64418 4.87518 63.5767
CA -12.1886 -8.08363 37.9349
CA 20.7289 8.88792 22.9027
CA -12.6983 0.685093 49.6529
CA 8.55936 17.0511 47.3992
CA 5.3436 -17.1466 36.9533
CA 20.2214 -16.9072 47.7664
CA 30.8026 8.88475 64.0105
CA 2.48362 23.6563 90.6825
CA 25.8708 11.0665 46.3222
CA 4.04922 -18.0459 67.0065
CA 7.56897 -3.22166 26.7724
CA 13.2902 -10.4574 55.5639
CA -18.978 -10.0609 38.133
CA -12.3132 6.37907 54.7087
CA 23.7205 -3.99613 69.1479
CA 13.5684 -2.1829 64.7569
CA 7.60372 -4.50376 56.2994
CA 0.812711 -16.7401 44.0597
CA 7.88219 -19.5115 71.6569
CA 23.7818 1.1499 53.7346
CA 5.67556 6.70312 51.7057
CA 6.50769 10.7098 31.4539
CA 41.1697 -17.0915 57.9811
CA 19.9816 -9.17093 67.009
CA -11.3813 -6.51704 29.2772
CA 22.5328 -19.8726 46.2377
CA 9.81131 7.18913 24.7749
CA 4.61336 1.01667 44.329
CA -4.90531 2.57846 42.0193
CA 4.9937 -3.97423 45.9098
CA 17.4967 -8.72925 38.399
CA -0.116722 2.94055 55.3077
CA -0.805904 -13.383 69.8117
CA -6.48376 -23.4106 35.1505
CA -5.16489 -31.9165 38.3203
CA 6.38541 -1.94281 36.8143
CA 34.0113 -6.92281 48.6692
CA 28.5298 -31.2903 64.7913
CA 14.2466 -8.52293 62.6463
CA 6.76771 7.44166 36.8733
CA -12.3446 3.69351 57.7105
CA 12.3114 -6.26185 44.5791
CA 22.3409 -3.66779 45.5844
CA 0.570095 -8.05173 29.6839
CA 20.5124 9.34016 19.9111
CA 27.0646 4.54007 46.2277
CA 8.05131 5.387 30.9616
CA -10.6743 -21.6517 38.7023
CA -10.0891 -20.5194 35.1468
CA 26.3802 3.205 54.2043
CA 5.62083 25.9209 25.1685
CA 4.02258 2.72059 69.6091
CA 19.6468 2.42974 51.379
CA -13.9918 -12.7478 33.2464
CA 12.9275 31.5369 30.3332
CA 10.8603 -23.5668 59.1875
CA -6.10104 -17.7003 42.5131
CA 7.60996 25.4719 27.9487
CA 7.23655 30.9395 30.4958
CA 23.0577 0.910532 72.5275
CA 5.40945 -22.0626 65.7165
CA 13.8536 17.0993 32.9988
CA 19.7355 -16.844 44.2252
CA 7.9083 2.28184 33.5497
CA -0.547225 -35.1602 29.774
CA -12.9313 -1.98587 27.9692
CA 3.87906 3.61715 64.0567
CA 14.4801 14.9901 14.054
CA 41.6903 -20.4428 43.8382
CA 4.79469 -2.70834 30.2731
CA 21.8425 -21.7168 69.6386
CA 4.08563 21.2332 27.4875
CA -0.203749 -2.83147 33.7722
CA 14.4179 -6.5968 59.94
CA 33.0164 -15.2222 44.9995
CA 11.8441 -4.05607 58.4586
CA 0.988486 0.00330168 56.3739
CA 9.09875 -4.78418 55.0134
CA 21.7989 -3.45883 40.3075
CA 24.7165 -9.24026 39.1225
CA 5.01147 -18.3885 68.9399
CA -7.89736 -6.11331 43.1234
CA -1.95542 0.716875 51.7713
CA 21.543 -13.3565 69.6293
CA 13.5094 -13.9096 28.7258
CA 19.9234 -24.9223 62.0906
CA 13.0687 11.3963 14.5389
CA 1.97535 4.06612 56.4512
CA 39.0705 -25.6094 54.5302
CA 24.6405 -13.2202 68.2937
CA 32.1758 -15.3838 58.0914
CA 3.90728 23.4634 30.6489
CA -7.12071 -21.4346 35.0651
CA -11.1149 -14.4485 34.9599
CA 14.8017 -6.49893 64.8327
CA 3.27326 -0.92825 31.3147
CA 17.9006 -16.1042 45.7512
CA 19.0181 -4.21126 64.7825
CA 21.9965 2.20416 39.4959
CA 19.9897 -21.9116 52.2133
CA 13.9759 -11.7729 73.69
CA 15.8451 -15.331 29.815
CA 12.4921 6.16455 30.5489
CA 21.0307 -9.22794 68.6244
CA 8.7759 9.30456 31.793
CA 3.36897 -8.12241 49.7286
CA 24.1554 -10.1162 75.7715
CA 4.595 3.61468 32.7873
CA 36.1758 -5.13337 45.8287
CA 38.8571 -28.0656 55.6607
CA 24.2725 3.08416 49.5234
CA 18.3109 -5.30895 44.0158
CA 34.8209 -19.888 56.6789
CA 24.1673 -7.82495 59.9488
CA 9.74302 9.93536 51.3248
CA 31.7657 -13.3371 47.1709
CA 7.72868 -0.861435 55.2845
CA 4.48912 -26.9861 66.1756
CA 14.547 7.20945 23.7704
CA 21.0026 8.72139 44.5889
CA 17.0144 -3.53522 53.236
CA -10.1873 -10.2447 34.523
CA 22.8616 -2.07759 66.5796
CA 19.3731 -12.2681 44.7101
CA -11.8978 9.33577 38.9063
CA 4.84521 11.7373 46.786
CA 37.613 -3.7391 49.9207
CA 17.8064 -10.3832 67.6092
CA -2.17257 -2.47993 60.0951
CA 3.69983 9.26576 21.3259
CA 6.35638 6.58442 19.2721
CA 0.456386 -13.7043 71.8616
CA 14.1411 10.1937 55.572
CA 23.7052 -5.93438 27.0063
CA 7.05228 23.8579 23.3494
CA 4.49 11.3098 19.486
CA 24.9063 -10.0836 69.0329
CA 8.43126 -17.0789 81.074
CA -13.24 -4.86875 55.3945
CA 4.5989 0.452671 62.5435
CA -13.4639 4.91867 46.1613
CA 23.7247 3.87282 54.1558
CA 7.41716 2.47982 30.4794
CA 36.935 -19.8601 32.1249
CA 4.12275 -19.5851 65.7551
CA 4.22787 21.1116 31.6737
CA 25.9861 7.10486 54.8804
CA 6.52808 -1.31937 31.7275
CA 23.9738 3.13961 69.0578
CA 38.7191 -24.5814 63.3357
CA 13.0364 33.5035 27.9178
CA 22.8063 -3.31658 52.2129
CA 3.80577 -14.4702 71.3199
CA 10.118 9.33556 47.3561
CA -9.39098 -6.01587 39.8826
CA 6.70338 17.3436 23.8332
CA 2.17632 -1.41565 33.5631
CA 11.1854 11.5736 37.9112
CA -6.4302 -4.19186 34.1405
CA 6.1679 29.9895 33.2276
CA 3.46439 7.77607 36.6959
CA 1.87032 -7.55166 44.4864
CA 32.8803 -13.7677 63.6712
CA 4.37079 -3.80955 49.0196
CA -8.38681 -19.2719 33.3598
CA 4.04484 5.32946 67.9081
CA 9.00453 9.54665 39.7025
CA 22.1081 7.24626 46.8394
CA 14.8339 15.8473 18.0679
CA 21.3661 4.44275 51.2475
CA -11.5605 -28.8508 35.2642
CA -4.07133 -8.19994 29.7624
CA -10.6943 -8.14772 58.3695
CA 2.20114 11.8714 18.423
CA 7.53862 11.3185 51.3593
CA 20.3034 18.7645 33.8748
CA 4.52128 -5.17438 44.428
CA 7.51758 14.4261 20.2641
CA 19.6082 5.44251 45.8941
CA 21.1877 8.48923 32.2069
CA 31.4839 -17.58 66.0989
CA -3.88455 -8.31885 36.1999
CA 13.7696 -19.2415 38.7211
CA 38.3172 -21.8524 51.181
CA 1.63759 -20.7534 41.5065
CA 23.0349 -11.5068 74.9394
CA 1.69992 -6.30516 29.5757
CA 24.828 -24.3072 70.71
CA 15.8883 20.0257 94.3463
CA 8.44783 -18.3569 38.1091
CA 29.9831 16.6812 61.8413
CA 9.94862 20.2996 45.5555
CA -11.0891 -0.0625965 49.0244
CA 8.97116 6.97969 62.6513
CA 5.99879 21.7198 25.6526
CA -3.24748 -6.09901 35.4271
CA 6.46077 -22.1493 32.7491
CA 16.5486 -13.8959 74.6074
CA 36.2612 -18.7035 60.7331
CA 15.8067 -25.5884 67.4749
CA -4.27019 -29.1831 35.8289
CA 14.8534 14.9613 21.4673
CA 13.4348 -8.44371 57.0908
CA -10.8537 -1.49581 55.7477
CA 14.8794 23.5232 94.3099
CA -6.32673 10.211 27.6255
CA -4.33701 6.08433 48.7169
CA 14.7686 9.8549 95.2741
CA 30.3598 -7.50801 51.7468
CA 16.967 -11.252 55.1956
CA 5.89145 -6.5828 61.4276
CA 31.8185 -13.8845 42.1773
CA -9.25241 -22.7337 33.1562
CA 16.5747 -14.9375 69.8368
CA 0.932064 6.29437 30.4755
CA 9.00133 10.4706 35.8472
CA 11.182 -7.39839 62.1273
CA 14.1872 -23.9817 72.9027
CA -0.936382 -15.1452 64.7974
CA 28.3205 -5.24774 48.7866
CA -16.4482 -0.288589 50.2792
CA 26.3431 -7.648 55.7091
CA 26.0485 1.97534 59.1074
CA 36.0143 -24.2224 33.4363
CA 0.522098 -6.35607 35.6795
CA -8.93925 3.90828 49.059
CA 16.347 8.10791 31.1529
CA 29.3967 3.27511 73.763
CA 7.8803 3.2026 53.4646
CA 12.7268 -22.2797 47.5289
CA -1.30917 3.9053 41.0068
CA -11.3185 8.71488 35.3325
CA 13.9695 -4.06257 32.1932
CA 28.6143 -7.49804 55.9117
CA 35.9147 -16.8915 64.6576
CA -1.151 -5.36936 54.562
CA 17.7049 -10.8621 57.3675
CA -16.7995 -13.2567 37.874
CA 11.6956 -15.7686 71.5276
CA -14.3447 -23.3629 41.7598
CA 19.5171 -14.614 28.5241
CA 22.4354 2.40882 45.4644
CA 22.6057 -7.56034 49.1901
CA 17.2666 -21.5613 66.3027
CA 22.6456 -12.4257 68.24
CA 25.1885 -2.74622 65.5735
CA 13.2513 -15.3436 79.8556
CA 6.7773 0.989884 48.3911
CA 5.09784 -17.7498 63.4505
CA -18.2051 15.8035 48.2781
CA 8.7406 -24.356 57.3675
CA -13.5378 -1.67335 51.8118
CA 20.1045 -11.8236 70.0252
CA 12.4536 -2.45106 63.2927
CA 17.7655 -13.7778 71.5843
CA 15.4631 3.16925 23.7289
CA 13.4152 -16.0213 43.3758
CA 16.8034 -0.814459 51.0514
CA 9.51758 -22.2461 76.7444
CA 14.5502 -20.1335 71.659
CA 44.4014 -17.7959 48.3829
CA -1.2165 27.2806 98.5075
CA 42.7288 -21.8226 47.7592
CA 25.8286 -3.76603 70.4535
CA 19.5482 9.03427 56.7559
CA 13.9275 0.353037 56.3306
CA 17.583 -21.2453 51.117
CA 15.5765 -17.6776 44.3953
CA 25.0375 -29.9136 65.8766
CA 28.7024 -8.91423 58.9091
CA 5.50576 2.44934 28.5338
CA -11.9659 -9.08887 54.9712
CA -13.1912 -22.808 27.4189
CA 28.8804 16.9474 59.8492
CA 18.0058 -23.5335 51.1667
CA 13.912 11.9405 26.1627
CA 16.5163 -15.0542 43.5118
CA 13.5871 29.5268 27.3696
CA 17.0018 1.75889 34.6281
CA 9.29789 -2.008 27.7081
CA 6.80696 0.891899 68.8069
CA 24.8829 -8.00376 75.9075
CA -16.5843 3.54949 45.4439
CA -5.70646 -7.56668 42.2142
CA 12.5611 -6.18545 57.3702
CA 4.00298 10.6044 44.84
CA 41.9579 -22.5249 36.4051
CA -5.70777 -27.1574 34.8419
CA 40.6349 -21.7328 42.5262
CA 26.2179 3.96951 65.6377
CA 19.011 -15.189 30.6518
CA -3.00378 -32.6597 33.3486
CA 9.63473 -8.34819 57.2904
CA 3.46248 1.88149 65.2584
CA 1.89025 -3.00862 26.456
CA 29.421 10.2851 63.1419
CA 2.04934 7.01854 29.105
CA 12.1395 -0.390557 53.3987
CA 10.437 28.6545 28.111
CA 37.5017 -20.4177 59.7686
CA 15.8608 -10.2829 35.4835
CA 16.3524 7.46058 38.7514
CA -3.72369 -4.97421 41.0961
CA 11.33 18.2255 41.7287
CA 17.6245 -28.3624 64.2627
CA 21.3793 -20.9784 50.4031
CA 29.3991 -9.88138 42.2611
CA 33.1468 7.80853 73.7264
CA 37.3485 -21.3792 46.8969
CA 40.3241 -24.2002 47.702
CA 4.12371 9.85881 39.2186
CA 9.62317 -23.6829 70.6664
CA -11.2144 -24.1608 36.6781
CA 30.083 15.2976 63.5827
CA 6.7533 9.90619 24.7093
CA 5.71534 6.47492 34.377
CA 1.7103 -25.945 69.9241
CA 3.00896 0.228969 60.7721
CA 13.976 10.6061 20.9952
CA 19.0212 -7.30787 32.4259
CA 29.5811 13.2015 60.6765
CA 6.47057 10.9417 15.1033
CA 25.7761 13.5833 42.7526
CA 13.5424 -6.89744 30.9209
CA 47.5948 -17.5499 48.1313
CA 19.1507 -14.7021 75.2317
CA 30.8262 -5.87394 43.5525
CA 1.85701 -14.0615 70.3644
CA -19.0097 0.620531 42.1812
CA 12.3065 -10.0295 29.3968
CA 24.5127 -0.895643 71.2547
CA 35.3196 -23.1587 61.8095
CA 27.5965 -13.3845 40.6509
CA 34.8555 -12.4926 49.5614
CA 7.34068 12.3051 37.6669
CA 7.15768 8.3257 46.303
CA -10.5265 -17.1177 32.8964
CA -18.6675 11.7524 45.9049
CA 30.3332 1.89797 69.9143
CA -7.1083 -23.2003 41.2587
CA -7.70125 5.38309 50.669
CA 19.1889 10.7565 45.6553
CA 26.1171 -11.3264 51.1591
CA 27.3861 4.34564 67.3521
CA 29.4564 -16.8201 41.8492
CA 5.17241 2.49379 67.8518
CA 28.3615 3.81351 54.8111
CA 17.2202 10.1665 48.7659
CA 16.2118 -22.6428 59.6813
CA -7.03394 -32.5775 31.1582
CA 17.9335 3.7974 53.3803
CA 14.4151 -21.6913 49.8047
CA 4.7739 -0.730882 30.2153
CA 1.45942 -3.68604 51.089
CA 10.1078 -17.3545 76.8816
CA -9.68955 -4.39762 40.8195
CA 8.5454 3.11377 31.7567
CA 25.9421 -17.6841 77.575
CA 5.14633 -19.9858 34.732
CA 31.9473 -16.4788 43.2658
CA 9.79772 -28.3249 70.2472
CA 12.556 -22.8547 73.4951
CA 7.06801 9.7306 49.1102
CA 15.74 1.13567 62.5201
CA 15.5329 7.42119 52.0535
CA -13.527 3.29165 51.1032
CA 15.579 29.3916 25.1599
CA 17.4932 4.2931 57.0412
CA 22.2156 -22.4323 65.9397
CA 21.4746 -2.43311 55.4648
CA 41.5169 -22.693 58.1256
CA -2.95014 -10.1267 28.0568
CA 17.8576 -16.877 43.6748
CA 6.57966 12.494 35.7011
CA 33.4139 -13.0781 54.7278
