489

CA 3.4593 10.4212 67.8115
CA 27.2513 -16.3572 51.3134
CA -10.3335 -11.9413 58.2163
CA 16.3145 6.72044 64.6809
CA -11.413 -10.8278 55.1247
CA -6.06069 7.58997 79.7582
CA -4.12222 35.2978 37.4419
CA 21.6278 -13.7302 57.3969
CA 18.4134 -18.1605 54.2881
CA 9.68568 -8.96742 72.5061
CA 9.91967 -21.0045 21.3587
CA 3.4105 10.5694 46.1019
CA 11.7895 4.48125 37.3358
CA 1.87201 -13.9717 35.5963
CA 17.2026 7.30517 61.1375
CA 6.69807 32.9038 63.688
CA 1.99095 -16.9672 51.1174
CA 6.72974 38.4054 58.5926
CA 19.4009 22.5132 35.6085
CA -19.5636 -10.744 46.4886
CA 29.4731 -12.6658 50.453
CA 3.67221 19.6674 84.0205
CA 6.40258 9.21322 14.1413
CA -4.46666 15.884 90.2733
CA -25.2869 14.4069 48.7629
CA 40.4098 -4.89231 65.717
CA 2.45334 -11.6323 32.2866
CA 16.4991 21.1429 38.2811
CA -19.4713 26.1507 73.2048
CA 2.26612 5.22887 41.2237
CA 7.08885 4.01451 40.6319
CA -15.2295 2.56985 55.8924
CA -12.7912 -13.0478 54.6061
CA -2.48563 -13.872 34.0076
CA 23.0806 -3.75905 53.3572
CA 5.50062 -18.1479 57.1954
CA 27.7954 -20.754 57.3409
CA -10.5866 13.3963 35.6015
CA 15.9727 4.52911 60.9435
CA 3.85082 -3.42825 58.7252
CA 5.8286 12.4717 45.9596
CA 29.7398 1.4781 38.373
CA -20.0087 -14.0834 27.4639
CA 4.83523 39.3906 59.9506
CA 20.6384 -29.1253 74.4588
CA 7.16062 28.4734 42.5331
CA 8.35875 10.3134 46.9978
CA 9.77809 -2.74922 43.5495
CA 36.4736 -7.29044 67.2399
CA 11.6572 16.829 82.6576
CA -2.59085 -12.8723 49.613
CA -9.11302 24.3508 37.2032
CA 7.90119 -13.4162 25.7099
CA 20.0185 -6.17457 51.3505
CA 11.3767 23.7586 77.6112
CA 5.63444 11.8816 24.6867
CA -4.01295 -3.05029 6.78965
CA -20.3541 15.5882 52.2476
CA 21.0873 -17.5875 50.0517
CA -19.3285 -5.18277 63.2103
CA 18.9998 -32.796 74.2319
CA -7.90756 23.0211 72.7552
CA 6.35586 -2.83379 54.5468
CA 11.9197 -3.43874 71.2929
CA -19.6688 -13.2486 39.9973
CA 7.00003 -20.3188 78.5952
CA -0.667207 -1.61839 46.4767
CA 16.5746 -10.3421 52.2975
CA -17.841 -25.1347 32.6262
CA 3.5865 19.8497 46.3891
CA 22.0149 -27.9964 72.4323
CA -12.7761 -13.2576 61.5199
CA 19.9143 1.47195 21.294
CA 22.8734 1.35041 36.9326
CA -5.78477 -6.48287 8.43622
CA -26.6262 -17.1752 63.6409
CA -25.4863 -27.8594 56.8272
CA -20.8176 18.5885 49.0432
CA 5.59804 31.557 58.7049
CA -6.77608 6.02236 42.7441
CA 19.964 5.56714 61.42
CA -10.1498 -9.56397 71.0226
CA -8.73609 -27.416 69.3026
CA 34.7904 24.38 58.5244
CA 1.93525 6.97426 38.0628
CA -10.9115 27.3555 25.9575
CA 7.32937 3.6625 47.1781
CA -19.2502 30.612 40.615
CA 9.34321 17.0243 43.0004
CA 0.526113 -16.0713 55.4255
CA -35.1786 -6.03771 69.42
CA -29.102 2.97976 50.8721
CA 11.3548 31.8254 60.7196
CA 16.7092 -5.59944 48.3244
CA 18.4604 24.0953 59.38
CA 32.057 -6.88713 64.9675
CA 18.7419 -4.59036 62.5557
CA -10.3992 24.9636 35.5199
CA -22.449 11.718 49.4898
CA 0.414544 39.734 52.2252
CA 28.5541 -1.47759 28.2875
CA -7.97085 10.5545 33.2285
CA 0.24701 4.77269 42.7248
CA -23.2989 -20.5102 61.8689
CA 0.519341 43.4566 57.8424
CA -4.19387 -35.9171 30.3793
CA 3.90823 -11.7272 24.3687
CA 2.32613 7.62632 50.5418
CA 6.33139 6.03457 45.34
CA 2.07379 31.5615 59.4864
CA -5.37333 27.3037 35.7801
CA -11.0982 -16.2123 50.0206
CA 3.4095 34.5458 54.6315
CA 6.48064 -5.95631 63.7275
CA 33.6432 22.3693 53.6448
CA -9.49088 -6.41526 9.88439
CA 41.4942 -11.7531 52.448
CA 10.7816 6.67264 37.0733
CA 31.2901 -9.81163 62.9444
CA 18.8666 2.48465 72.9442
CA -4.5127 12.1973 83.21
CA 1.31999 36.4374 27.9462
CA -38.9905 2.61789 61.2108
CA -22.681 11.3855 43.1195
CA 7.5955 21.4911 47.3127
CA 22.3737 -0.0183733 67.5571
CA -8.80078 11.2696 37.7046
CA 38.235 -9.86798 66.5261
CA -0.74713 2.97902 38.4601
CA 7.42515 -11.3012 25.8854
CA 13.6798 -0.16306 64.1179
CA 6.70989 19.6358 29.3823
CA 20.8893 3.9846 66.6536
CA 11.0361 2.01132 37.644
CA 31.8946 -5.75727 34.3537
CA 2.32989 28.7257 43.357
CA -11.81 -11.0639 19.1539
CA -22.2884 -13.3058 42.1088
CA 24.6923 12.3113 15.5553
CA -9.60561 14.0166 33.4397
CA -15.2508 -9.30528 48.8009
CA -14.837 36.2272 45.7535
CA -5.75224 -18.2504 48.0958
CA 14.2395 -7.35588 40.3088
CA 3.93355 -42.6125 33.7915
CA -37.2518 4.45699 57.5679
CA -8.64499 13.2814 31.4803
CA 17.0511 -11.4778 60.7781
CA 15.8579 -9.54393 67.2469
CA -6.87597 26.3666 71.9737
CA 16.353 15.494 18.7523
CA -8.44578 22.2821 39.4406
CA -5.43373 20.1374 59.1258
CA 20.8214 1.25944 39.1612
CA 10.0383 -0.136803 68.929
CA -1.73237 40.4215 54.8372
CA 11.4221 -8.46288 71.7347
CA -6.82482 -22.1815 33.5069
CA 21.0086 -22.8589 26.0681
CA 41.0818 -14.4519 57.8868
CA 35.2263 -12.0347 46.2078
CA 37.3831 -8.10935 70.9232
CA -9.4935 0.107661 41.5773
CA 3.48369 35.9644 57.7636
CA 6.59997 27.3697 38.6942
CA 23.302 -14.7161 59.0801
CA 1.95806 -17.8779 56.8085
CA 9.35449 4.67435 47.4889
CA 16.5065 -3.21202 69.1931
CA -11.9971 -1.5068 81.1025
CA 31.7369 -1.72343 40.7255
CA 20.4336 -13.0368 60.6931
CA 8.24576 18.9642 83.8227
CA 24.728 -13.6895 57.7703
CA 27.6175 12.5538 18.9958
CA -28.3207 13.6349 59.583
CA -10.2683 -25.8976 34.5173
CA -20.1906 -3.48346 40.2054
CA -31.8654 9.57536 59.8686
CA -20.5917 -11.0766 40.6833
CA -4.94962 -12.9685 37.6638
CA 7.92006 11.7914 44.4044
CA 6.45447 -11.0254 54.5426
CA 4.01953 21.4361 39.7535
CA 7.23479 -4.80726 54.4015
CA 11.9274 7.01022 21.3522
CA -21.977 -16.6271 59.7889
CA -24.323 -16.2872 23.4962
CA 2.18116 -15.7922 47.258
CA 4.37008 9.73838 19.7831
CA 16.7385 -6.00585 68.4361
CA 2.14478 -8.02856 55.5681
CA 34.6775 -6.58222 61.8688
CA -0.886651 -24.1999 27.1937
CA 14.4631 9.92183 19.0373
CA 1.22999 43.3916 55.1638
CA -6.93356 -1.34904 9.78701
CA 10.6038 0.222246 39.3963
CA -7.05189 -15.0962 36.0506
CA 31.677 -9.08617 51.1246
CA 4.87655 8.88468 45.4071
CA 9.23541 7.78096 46.9831
CA 4.0221 -4.93238 52.6214
CA 1.05115 -10.8625 55.1304
CA -2.17347 -24.8834 28.762
CA -0.78017 7.93026 51.149
CA -31.4839 -4.69016 68.3219
CA 20.7346 0.198598 60.0055
CA 12.6403 -0.643727 36.0473
CA 44.325 -5.95546 69.2477
CA -3.27893 -16.3067 45.6201
CA 1.91588 4.52419 35.0621
CA -0.949489 1.93576 44.0997
CA -8.00211 8.72281 40.4983
CA 8.43043 4.56632 10.9252
CA 7.3527 25.4028 58.6691
CA 16.2366 -1.31735 64.4579
CA 17.1855 -2.40279 47.9873
CA -26.9508 7.65977 79.978
CA 1.34117 6.75128 52.8742
CA 5.33207 -5.30044 19.1248
CA 11.4074 -6.57261 63.9724
CA 34.1039 -13.5918 47.8372
CA -2.75306 4.29511 34.9427
CA 43.7102 -4.55776 66.8845
CA 5.03523 20.7728 17.0363
CA -7.20352 6.36719 37.2616
CA 3.51835 40.9207 53.9068
CA -14.1053 -27.2383 29.2496
CA -7.41085 -19.5073 49.9648
CA 8.24027 29.7638 45.3963
CA 33.431 -9.69368 66.8752
CA -0.582771 12.8021 86.2853
CA -12.7063 -9.82485 50.9459
CA 16.612 -3.36006 59.5725
CA 15.8647 -16.4949 34.3843
CA -3.42354 -10.6594 36.871
CA 17.5691 -4.08002 54.6225
CA -23.1366 27.7663 39.7536
CA 6.65798 7.54437 70.5862
CA 5.248 15.1609 26.9898
CA -2.3343 -19.6995 72.1104
CA 1.48109 14.0278 33.3213
CA 36.8469 -1.83788 47.3087
CA 16.0251 23.6849 78.7806
CA -19.2573 25.8814 40.0694
CA -5.46167 22.7554 37.2753
CA 38.6649 -13.7498 58.2649
CA 12.9761 6.26829 37.8573
CA -9.56359 12.8254 41.4634
CA -21.4727 22.4394 38.7224
CA 18.42 5.48307 56.5418
CA 3.87753 6.76184 43.4775
CA -7.71805 24.2863 34.057
CA 1.60802 -1.12095 45.1155
CA 26.493 -1.53358 39.4093
CA 3.43182 31.2657 54.8464
CA -30.2076 -12.2707 43.4619
CA 2.49294 4.06584 44.3333
CA -15.158 23.0323 73.3591
CA 3.87148 32.0878 57.6344
CA 6.04723 20.3161 45.6727
CA 15.2994 0.5514 72.9941
CA 41.6973 -10.0247 54.1597
CA -33.2083 16.3258 32.7184
CA -8.03978 -4.51456 13.7479
CA -31.8586 11.8158 51.8639
CA -9.28423 -8.31062 15.5317
CA -17.0658 4.04589 53.2364
CA 6.17761 -4.73009 52.4779
CA 1.86858 10.4846 33.7549
CA -23.7093 25.8024 36.7106
CA 4.55865 -1.344 42.439
CA 9.17217 1.29758 36.6106
CA 20.0638 0.220225 68.9641
CA -13.8139 11.0255 57.8347
CA 6.68753 12.3887 18.0758
CA -36.8119 0.297743 58.3352
CA 30.0565 -9.54406 54.2759
CA 29.7964 11.4953 24.8277
CA 23.0464 -10.0851 72.2148
CA -13.2356 -21.6236 34.0192
CA 17.3314 -19.9967 55.4253
CA 38.171 -7.54191 68.7442
CA 11.5881 -20.0709 23.5453
CA 32.8665 -8.6455 65.3398
CA -2.33727 32.2795 38.7235
CA 10.2942 22.7029 42.9392
CA 27.7085 15.8505 68.1916
CA 13.4947 8.22421 57.8849
CA 3.44894 -11.0519 55.2001
CA -5.59473 9.50602 46.525
CA 34.0391 -4.88011 67.4611
CA -28.0055 -28.3115 54.7243
CA -12.1397 -25.4595 31.1838
CA 13.1352 -3.60205 41.7361
CA -33.4506 1.30458 58.2435
CA -0.486086 6.37186 33.2946
CA 17.7334 -0.76483 67.2714
CA 0.047703 -14.2251 71.2912
CA 5.50114 -1.0111 44.0733
CA -30.1909 -26.8612 51.6978
CA 5.9923 9.30848 48.8819
CA 7.51472 -20.0849 82.5831
CA -11.4333 -23.5189 33.3962
CA 7.00908 13.4416 25.9385
CA 31.2166 1.10709 37.3858
CA 9.20285 -0.189253 11.077
CA 15.0702 7.94791 61.1684
CA 34.9266 22.7174 54.98
CA 18.6262 -2.13785 41.9682
CA 8.30893 20.2456 44.5434
CA 0.946917 14.9729 21.4814
CA 29.2198 -17.2353 52.2843
CA -0.909927 -13.1372 53.0806
CA 1.68582 31.3663 53.6348
CA 33.1198 -12.5063 71.114
CA -19.7212 -24.8081 42.802
CA -8.16013 8.97575 38.1884
CA 18.9482 -11.8135 53.6905
CA 1.55664 -4.09267 47.7069
CA 42.0929 -13.3247 49.2202
CA 13.2881 10.1475 34.8169
CA 15.367 25.0286 38.7859
CA -1.65009 38.8058 36.3801
CA 20.3573 16.6442 41.7788
CA -13.9309 -25.6158 28.1437
CA 0.0863077 -6.06955 36.2124
CA 15.5042 -1.488 48.7612
CA -22.6553 -19.9228 39.0337
CA -20.6207 -13.9603 51.3972
CA 24.8942 -13.4382 60.3032
CA 9.30382 -17.3888 32.9798
CA -4.55996 -5.88356 69.0252
CA -8.20081 10.8498 29.7157
CA -5.98385 11.2206 38.1337
CA 12.7635 -1.757 67.7699
CA -1.80363 -37.1941 33.1707
CA -28.0309 9.99643 60.4228
CA -19.0387 10.4406 60.7088
CA 8.6201 -2.49987 74.0049
CA 16.2927 23.415 62.6881
CA 9.35319 34.3156 59.4143
CA -7.17981 -9.96198 72.9876
CA 4.628 29.0319 40.8685
CA -13.2254 0.994475 40.392
CA 1.42447 -11.8182 51.2305
CA -9.3782 -1.76656 45.5149
CA 23.2967 -18.1758 59.5683
CA 30.6601 -13.1716 52.3889
CA 5.07854 20.7831 50.1403
CA 1.33544 -20.3409 71.1057
CA 4.50415 -11.8292 33.0978
CA 4.57378 18.8089 37.3328
CA 26.5286 -11.9762 74.3604
CA 1.68651 43.896 26.9262
CA 23.4204 11.4992 19.7708
CA 12.4418 -22.346 21.0947
CA 13.5594 -20.016 29.7773
CA 24.3875 -5.46238 55.992
CA 0.223075 -0.319107 43.8639
CA 4.20897 -17.4339 83.4067
CA 4.00655 9.93863 72.294
CA -13.1952 -23.7152 31.548
CA 6.2778 41.109 60.0366
CA 17.8165 4.98814 62.3067
CA 7.1232 13.5418 44.8933
CA 1.56113 6.25321 39.7139
CA -11.8155 -25.0164 27.4483
CA 10.0117 20.9985 40.8023
CA -23.0984 -23.9605 61.7286
CA 22.4984 -7.7309 65.4135
CA 42.7056 -13.259 56.6766
CA 5.03488 -5.76348 58.656
CA -5.83493 -11.2574 53.282
CA 7.66248 17.2928 20.4834
CA 13.1132 -19.5807 22.6838
CA 13.3563 -19.8095 33.8358
CA 11.9302 -6.43443 67.2624
CA 13.1351 -7.46818 73.8367
CA 1.64291 5.88487 43.2385
CA 14.9821 -3.27513 64.9292
CA -27.8371 22.8131 44.2669
CA 1.70498 -13.589 37.7046
CA -14.9682 -29.1055 25.9741
CA -3.76073 9.59111 36.5294
CA 4.9898 11.6834 18.7165
CA 12.3736 -9.36696 69.4081
CA -30.6428 9.95619 49.8816
CA 31.2702 0.821696 29.2898
CA -24.6968 -13.4802 22.9902
CA 18.8416 6.2124 59.4561
CA 18.0676 22.1348 36.7899
CA -5.73539 27.584 70.8927
CA -5.69557 27.9516 39.1411
CA -4.82671 7.8409 40.3693
CA -23.9319 -11.9859 47.4592
CA 18.7484 12.0242 20.1173
CA -30.9754 -3.4837 51.1281
CA 2.74162 -1.66651 40.9349
CA -15.2189 -23.8661 29.8781
CA 7.68336 39.6156 57.1114
CA 11.7856 -18.7414 29.4388
CA 2.78254 18.9255 31.8307
CA 43.069 -8.47829 54.973
CA 3.87376 -15.6527 53.7792
CA -9.98931 20.949 39.9269
CA 0.951459 8.9604 40.7634
CA 14.0954 -4.66641 66.3971
CA 14.0319 22.8012 77.2173
CA 16.0699 9.06966 36.8525
CA -1.70075 8.30404 43.3639
CA -15.7983 -22.8592 32.1649
CA 37.6351 -6.058 65.9621
CA 12.3606 16.0592 19.2215
CA -18.1853 23.6465 72.6999
CA 7.42599 28.5877 57.9079
CA 30.853 -7.73947 68.2416
CA 0.649414 7.70625 43.6114
CA 8.04189 19.9074 36.2452
CA 3.84836 19.9031 20.9343
CA -3.44022 14.4987 86.1959
CA 0.0921022 -28.5239 35.6094
CA 28.247 -8.55522 69.1155
CA 10.3859 12.7225 21.1366
CA 12.1705 17.539 43.5302
CA -23.0506 27.0048 42.2802
CA -26.3605 -10.8634 65.572
CA -16.6394 -22.9696 35.2802
CA 14.0224 15.0042 24.8406
CA -6.25052 13.8008 84.9191
CA 18.6106 -6.78096 53.034
CA -34.1586 10.1831 53.4893
CA -21.561 15.3331 50.933
CA 16.9856 -4.45615 65.3168
CA 4.98124 21.9135 22.6723
CA 31.1574 -12.9311 48.7257
CA -7.87448 -21.5008 76.791
CA 9.44136 10.3562 19.079
CA -8.58634 -4.06135 9.9058
CA -20.1623 -12.5736 41.8436
CA -5.72145 11.2368 87.6733
CA 20.7211 6.76766 59.7641
CA 4.8864 -7.45708 30.8076
CA 19.5109 -0.194195 66.1576
CA -5.20801 -19.4909 74.4367
CA 7.77723 -10.4042 57.0565
CA 20.4623 -15.7726 62.4382
CA 17.6768 -1.69982 62.6876
CA 16.439 1.94382 57.9884
CA 20.1398 -0.139367 42.7903
CA 4.33038 14.1463 19.9729
CA 9.05426 2.41094 73.2954
CA 3.22122 -13.0493 55.8377
CA 20.634 -31.157 73.5249
CA -26.135 -29.4884 55.5777
CA 22.7477 0.591407 41.4795
CA 36.1339 -14.4499 67.8361
CA -38.0104 -2.65084 57.4254
CA 3.51779 23.6946 37.6806
CA 19.7342 -3.33034 65.8673
CA 13.7044 10.4521 38.1878
CA -21.7952 8.33988 58.3178
CA 14.1138 -1.09444 76.0601
CA 43.1922 -10.2005 50.6944
CA 20.0823 3.10399 58.8259
CA -9.60466 -12.1109 72.894
CA -8.41155 27.0999 37.6703
CA 23.0967 -1.26746 58.1669
CA 9.09266 8.84401 10.5369
CA -2.99989 28.9487 41.4389
CA -19.9606 -16.7632 23.0897
CA 20.2547 -2.71616 59.2979
CA 6.56174 -2.72151 56.5439
CA 40.2358 -11.3944 65.5564
CA 4.7845 13.1357 22.1511
CA 11.0271 -20.2642 31.3602
CA -6.78803 27.3578 73.6399
CA 16.8869 -22.016 26.9754
CA -31.7251 -7.67666 69.2294
CA 22.6835 -15.2363 54.6992
CA 12.0802 -5.76145 40.7135
CA 13.8334 -4.8346 73.988
CA -31.3843 -24.0946 55.2354
CA 1.86799 33.4458 23.7719
CA -21.2486 24.9601 37.0914
CA 6.38431 -14.6659 25.859
CA -0.791441 6.05449 35.8673
CA 8.54043 -16.3498 41.0332
