489

CA -3.25792 16.8233 19.4571
CA 14.7173 18.9481 37.4127
CA -3.79527 -21.9704 35.3063
CA 2.39792 -15.3421 42.0514
CA 16.0262 19.5198 18.5322
CA 17.5105 25.1222 34.6943
CA 17.3837 21.0329 34.0509
CA 30.0796 -33.2505 55.8255
CA 22.6606 9.57992 52.1164
CA 21.0559 -6.04143 30.0477
CA 41.1929 -16.5511 54.0147
CA 15.5436 -9.77977 64.2001
CA -24.7925 -10.2732 52.4893
CA 27.4188 -6.92741 48.3279
CA 40.7301 -17.8468 60.0656
CA 3.67388 -2.47975 40.13
CA 24.4758 -32.5833 62.7645
CA 32.6244 -18.2499 47.2221
CA 12.5783 -15.9576 77.7147
CA 15.9598 7.44248 46.9659
CA 18.5041 5.37604 35.6512
CA 12.3607 11.7486 34.4826
CA 18.4166 2.58181 59.3714
CA 17.8917 -9.99893 44.9145
CA 32.2877 -21.9415 61.8791
CA 36.505 -9.44325 56.5951
CA -7.64646 -10.2495 37.8277
CA 19.6549 -23.5529 67.6066
CA 17.1927 -20.1301 40.9752
CA 21.8322 1.96507 41.2263
CA -18.235 -9.59551 52.7136
CA 11.0411 -2.11328 73.1553
CA -13.5326 -15.2514 42.49
CA 16.3691 -2.44222 32.2899
CA 9.59297 -3.85432 38.0695
CA 23.9378 16.4402 46.4987
CA 39.4345 -10.2229 55.4877
CA 8.57618 17.6278 29.4739
CA 21.2465 -31.0344 62.4431
CA 9.49485 -26.0511 66.1568
CA 7.84727 -19.4232 52.7584
CA 22.586 17.9747 47.1789
CA 9.95169 7.34481 51.8348
CA 5.33712 22.107 17.2395
CA -2.44501 -24.6203 34.7988
CA 15.8268 -23.2194 72.044
CA 30.6142 -20.4157 44.4221
CA -0.613469 2.8958 45.0863
CA -4.66079 -30.8425 39.7309
CA 20.5815 -16.2405 57.4426
CA 26.9249 -14.0157 60.7609
CA 12.716 -9.54402 41.2532
CA -5.14657 8.00495 39.2383
CA 11.9526 -0.28745 39.8288
CA 8.40638 -14.5289 69.4223
CA 30.0474 -6.872 55.9907
CA 21.8937 -0.759619 29.7449
CA -4.27408 -29.3677 35.0995
CA 0.475456 9.0067 23.1245
CA -15.1766 -5.19949 38.7624
CA 13.0424 -24.8397 61.5843
CA -8.41213 -20.0189 38.6161
CA -1.9752 -1.81472 40.416
CA 19.7731 -20.8017 63.7779
CA -4.1277 0.213931 56.3491
CA 21.1019 7.51517 50.8243
CA 0.0819884 6.62166 43.3885
CA 35.1505 -15.3497 47.3304
CA 29.347 -2.84911 62.9953
CA -5.66843 3.93917 47.0051
CA 25.4105 -15.7094 57.0272
CA -13.6775 4.79714 58.3225
CA 31.7867 -7.98485 23.756
CA 19.2147 -6.0943 46.4625
CA 17.5829 -28.3417 71.8181
CA 17.676 -31.2192 74.387
CA 30.9878 -18.4264 65.5957
CA 15.0564 3.47191 32.6075
CA -11.1253 0.655504 44.9192
CA 33.8264 -4.58486 63.4958
CA -4.87471 7.21406 29.1633
CA 32.6472 -11.878 43.5648
CA -18.9217 0.067716 53.4195
CA 41.8509 -16.048 59.7643
CA 45.9278 -15.6611 62.4391
CA 34.3306 -14.7681 49.6127
CA 11.9315 16.4215 26.3553
CA 8.8845 -25.3127 64.0245
CA -15.4026 -3.11554 55.6176
CA 23.0641 -14.8987 65.1783
CA 2.40052 18.5579 19.2852
CA 29.0011 10.8104 58.3465
CA 30.4117 8.755 61.9755
CA 23.7381 -17.5936 58.6399
CA 9.7539 -12.8483 70.4639
CA 45.0718 -20.269 63.6281
CA 24.2005 -13.9917 57.8038
CA 28.0709 -37.5146 63.0939
CA 3.61009 -20.595 64.0073
CA 43.0368 -20.375 61.5303
CA -13.9631 1.4873 46.9831
CA 17.6149 -15.4494 60.4434
CA 2.76054 17.6482 23.3341
CA 16.2064 -11.2762 67.2452
CA 9.22432 16.9886 34.7562
CA 16.4352 -9.33486 75.2052
CA 20.6269 -32.5044 57.9497
CA 15.4045 -26.6281 71.1118
CA 32.5514 -4.04549 65.7931
CA -11.6208 -1.736 49.1965
CA 18.4505 2.93939 62.9696
CA 0.44694 -19.6899 59.4039
CA 15.8017 -26.3362 57.8958
CA 16.2562 -14.9937 64.9791
CA 17.1391 17.4758 20.2647
CA -6.54722 -14.8429 45.6569
CA 28.6412 -15.8362 56.9629
CA 7.18428 -9.00828 75.3043
CA 13.5985 -22.721 60.1255
CA -4.37195 -14.7814 47.2829
CA 13.1836 4.90453 32.6561
CA 22.6311 11.6666 57.8837
CA 27.9886 -7.75862 28.3456
CA 9.62386 9.32552 18.9385
CA 21.7276 -14.0268 72.8149
CA 14.9551 0.508285 35.3729
CA 41.281 -17.2361 56.8327
CA 30.8873 -10.7105 46.2527
CA 31.401 -6.17426 25.0225
CA 23.0248 -19.7083 44.6233
CA 22.7352 -29.2155 58.8381
CA 18.3996 8.9264 11.1074
CA 34.6385 -4.64716 55.8304
CA 16.1911 -9.0907 50.9719
CA 12.87 -4.21241 35.5854
CA 2.13367 1.99597 40.7932
CA 14.3265 15.924 32.5959
CA 0.411232 -17.8102 45.1556
CA 47.646 -20.0219 54.9321
CA 20.6673 3.28897 42.1529
CA 18.3512 -16.6128 29.9147
CA 21.4406 10.0236 43.9299
CA 30.6008 9.40362 58.5715
CA 12.5193 -20.2858 54.5813
CA 12.6034 -10.8621 37.1996
CA 2.88744 -16.0252 62.0112
CA -3.80315 7.97653 36.4261
CA 29.3704 -29.4925 57.8286
CA 18.4759 4.78948 58.0427
CA 28.6004 -15.3681 70.1057
CA 35.7854 -12.2055 54.1945
CA 12.1778 -20.9457 67.5439
CA 6.37741 13.4767 42.8852
CA 13.2342 -30.5776 66.2365
CA -13.265 -9.97596 56.3138
CA -7.19059 -2.37979 57.8202
CA -7.1149 5.17453 46.0309
CA -13.4313 -15.2263 38.5474
CA 30.261 4.88443 54.5625
CA 25.1103 -9.60247 44.4752
CA 0.140292 -19.5839 65.7435
CA 11.7927 7.46043 52.5231
CA 19.0447 8.85573 52.6108
CA -12.6214 -5.60219 47.5539
CA 24.5923 -25.0501 59.9174
CA 31.7599 -4.26183 50.0513
CA 21.8557 15.343 45.8026
CA 33.3668 6.02949 58.125
CA 31.3991 -6.62426 49.9087
CA 20.9811 -4.97133 61.1245
CA -5.22596 1.54376 53.39
CA 33.3336 13.3079 61.7729
CA 28.049 -20.5067 60.0694
CA 28.6197 -30.3202 59.8477
CA 7.58855 -16.997 40.0911
CA 22.5433 -18.1121 65.9896
CA 10.0779 16.0989 47.4346
CA 41.4419 -28.6745 63.0295
CA 41.6687 -21.5502 61.5291
CA -5.39962 -16.136 37.5064
CA 10.3337 -19.3643 71.3239
CA -2.38649 7.87373 22.3757
CA 20.9466 -31.1625 59.8428
CA 35.356 -14.1318 55.6807
CA 17.2455 -14.5976 52.3083
CA 17.5739 -17.7287 64.6301
CA 20.0248 -3.37108 50.0287
CA 29.3071 -14.2731 51.2073
CA 17.0912 11.3905 43.7699
CA 27.6679 -6.76373 26.7332
CA -16.3939 -13.2018 35.8765
CA -3.25472 9.78493 25.5594
CA 30.6097 -3.04104 66.7035
CA -1.6882 4.1286 42.53
CA 11.2599 15.9024 49.2133
CA 9.67866 -20.9503 75.0615
CA 24.7968 3.08407 44.0442
CA -7.06218 -8.8482 35.8079
CA 5.62339 -7.55495 39.6124
CA 6.9717 -27.0719 66.4327
CA 12.3762 11.3624 30.226
CA 2.42822 -18.9224 71.5263
CA 40.1935 -18.6915 53.1264
CA 17.5359 6.43485 30.8937
CA -4.46488 6.98308 44.7732
CA -16.9652 -17.8015 37.9604
CA 43.0822 -17.9548 53.765
CA -3.04595 -17.7229 35.3785
CA 29.7 -10.1223 58.8412
CA 10.8853 11.9647 52.2688
CA 20.9173 -2.63166 52.7688
CA -25.2438 -6.89137 49.6919
CA 33.5301 -18.9013 64.323
CA 17.9877 -2.34937 25.7356
CA 25.4494 14.3925 60.7558
CA -11.2078 -23.3275 37.2078
CA 18.6893 -15.0589 62.422
CA 11.3685 -26.5449 66.7565
CA 23.0618 -6.60439 39.0263
CA 17.0859 -23.301 64.5245
CA 27.7625 0.138521 70.5956
CA 23.9754 -4.14745 33.346
CA -9.68033 -0.53596 41.2376
CA 11.6463 -29.0201 65.2737
CA 11.016 -19.3848 64.2664
CA 9.20115 -18.2288 49.6534
CA -12.1478 -10.1132 50.6972
CA 24.1673 -7.82495 59.9488
CA -3.64925 -5.78005 39.5986
CA 21.0732 -5.90136 47.1354
CA -5.06229 11.8374 28.8282
CA 20.9781 -18.8067 64.8884
CA 21.8524 13.0795 50.774
CA 33.6688 -21.4602 63.6229
CA 16.3071 -4.22488 32.7575
CA 37.9423 -18.585 56.3393
CA -9.71732 -0.468729 53.0739
CA 21.7545 -8.85856 74.171
CA 6.55055 13.0496 48.1736
CA 11.8369 10.6674 50.9539
CA 11.7561 -23.6245 57.2315
CA -12.6358 -7.07571 50.8548
CA -13.8985 10.3523 40.3412
CA 12.3528 3.87094 35.2144
CA -4.91264 -0.162269 50.7587
CA 30.9692 -5.46021 66.5078
CA -2.01817 -9.58467 59.4866
CA -9.07418 -18.3456 40.328
CA -28.4579 -8.12296 47.005
CA 21.6816 15.9869 48.3328
CA 21.6708 1.84317 28.6513
CA 1.86101 -20.1439 65.8731
CA 8.20474 9.93513 38.5065
CA 19.8917 -30.4601 57.0749
CA -15.6575 1.20895 52.8977
CA 35.796 -21.562 45.0617
CA 15.8474 8.97268 53.2098
CA -3.84513 10.856 37.1877
CA -7.18189 6.56296 35.3925
CA 24.6422 0.472659 45.6433
CA 6.18031 19.4394 19.5905
CA 15.0495 -16.0004 66.3669
CA 19.7509 4.63579 55.1021
CA 12.4229 12.7184 51.3641
CA 17.1577 -21.1382 63.962
CA 20.1029 0.319208 49.3845
CA 23.4484 15.946 44.8208
CA 6.91563 -19.7679 64.1281
CA 23.7247 -5.80257 76.9772
CA 23.075 -19.877 65.6259
CA 36.5456 -15.2754 53.9155
CA 13.3966 2.84287 32.9984
CA 24.0103 -21.8532 55.6382
CA 10.0337 -22.0433 66.3501
CA 32.2744 -7.40666 52.5077
CA -7.26723 -2.54753 49.9274
CA 49.1495 -17.7175 64.2828
CA 7.28909 -13.2059 73.5996
CA 15.8261 4.71644 35.1712
CA 12.0969 11.0896 19.9809
CA -14.9706 -3.28482 58.3495
CA 15.7738 -23.5777 63.2833
CA 19.2804 6.17226 50.3179
CA 2.20578 17.5411 16.8234
CA 31.4924 -14.8278 65.8961
CA 24.5602 -2.86937 31.7472
CA -11.9894 -5.81089 54.4524
CA -9.29663 4.54916 22.4768
CA 35.7649 -11.1461 52.0324
CA 13.3144 -10.2166 34.7731
CA -6.0678 3.57447 33.0641
CA -11.5047 -20.619 36.1471
CA 45.3996 -19.3536 53.9787
CA 13.0422 -19.2672 78.0918
CA 20.2885 7.25759 52.4772
CA 7.25767 -17.7774 32.1148
CA -0.790253 -18.9392 32.8549
CA 10.4582 10.4439 22.545
CA 12.8557 7.13389 27.0217
CA 27.2657 -14.2914 55.9847
CA 11.8037 -9.18335 66.9161
CA 3.84322 -20.2329 51.465
CA 21.3235 -1.72581 44.3445
CA 18.1665 -20.0511 32.315
CA 1.97411 0.152858 42.3229
CA 13.8834 3.15122 62.1273
CA -1.66474 6.00237 42.075
CA 6.80841 9.23951 21.0403
CA -16.0527 3.91063 56.5576
CA 6.65561 -12.8191 67.3813
CA -6.11906 0.238496 57.0427
CA 34.5674 -11.9731 58.3503
CA 18.8257 -8.39916 58.2803
CA -12.0065 -20.2017 39.293
CA -6.90165 1.75843 41.0953
CA 11.3253 11.0749 36.3969
CA 13.1947 8.66991 18.5208
CA 14.9551 7.13629 52.0166
CA -26.4228 -9.33522 45.9592
CA 20.1539 -12.7199 74.0811
CA 18.4871 11.8904 21.8377
CA 8.39743 -27.6761 59.5016
CA 5.92384 -18.7388 35.805
CA 19.2068 -17.4541 63.9215
CA 19.9746 -0.655702 37.6614
CA 21.2911 -9.83983 27.997
CA 40.167 -22.7845 63.1125
CA -11.9927 -5.79891 39.4678
CA 32.3528 -19.3014 45.3983
CA -8.19391 -22.8152 37.7642
CA -11.4912 10.6818 29.9456
CA 14.691 -22.2399 65.6733
CA 20.6795 -14.9919 53.6065
CA 8.5521 -19.2944 38.7843
CA 9.55842 19.1908 29.2123
CA -5.60369 8.25561 32.4333
CA -2.66252 -2.57666 44.2952
CA 15.7037 -18.6739 70.1048
CA 33.4296 -17.5774 55.9708
CA 6.02615 -17.1883 72.5103
CA 14.0369 -17.2233 34.5581
CA 8.45014 -20.2113 61.2591
CA 30.8986 -2.82499 55.8127
CA -11.7009 -14.5527 35.8534
CA -11.7839 2.96479 54.8463
CA -8.13313 12.7777 39.2271
CA 30.812 -0.80445 66.896
CA 29.248 -12.1828 54.5677
CA 17.0828 9.49125 15.3833
CA 16.5656 -17.605 30.6088
CA -4.44557 -16.5478 44.3915
CA 24.8343 -12.7333 44.5591
CA 3.30496 -2.10834 52.9758
CA 37.131 -26.3483 58.0787
CA 24.1397 0.699723 40.6897
CA 29.209 -7.35847 50.7151
CA -2.10872 -5.42577 30.2765
CA 41.5002 -19.2028 59.0714
CA -14.7932 -10.3684 37.0503
CA 16.8718 10.2025 36.2248
CA -16.2973 -6.89579 38.4006
CA 31.3511 -17.6136 68.0294
CA -8.14233 -1.61133 35.7305
CA 7.90668 9.00242 48.8545
CA 5.99082 -17.2617 38.5908
CA 20.3994 -2.22805 41.9887
CA 16.8039 -19.8639 72.9372
CA -6.60088 -12.9106 44.4764
CA -8.74403 0.483012 59.8942
CA 27.8012 -0.771551 75.1454
CA -12.6349 3.73598 49.9033
CA -21.7059 -8.40694 50.5144
CA -5.7802 4.7563 29.7439
CA -8.77834 0.623095 47.6394
CA -7.65142 -6.58796 38.5687
CA 34.1557 -20.7269 45.3757
CA 20.7422 -12.9504 55.9456
CA 12.4418 -9.78292 48.3039
CA 30.9219 -9.07376 48.1071
CA 25.8678 -9.93115 46.6521
CA 24.9049 6.3302 57.1371
CA -8.19657 10.5231 49.1547
CA -8.50255 -5.08722 45.9949
CA -11.0577 -17.2844 38.6703
CA 40.5611 -19.5047 56.5875
CA 12.1922 13.7437 22.4954
CA -13.8938 -8.36041 51.1745
CA 20.7173 -28.1646 58.7803
CA 17.6539 11.2438 41.7956
CA 9.532 13.3147 16.5827
CA 17.5126 -17.7901 69.0932
CA -8.33918 2.73508 50.0768
CA -11.8315 6.85312 22.1434
CA 21.5907 -4.44917 39.7035
CA 30.5736 2.26038 74.0162
CA -8.05541 11.7457 33.0116
CA 8.1517 8.94442 52.5626
CA 3.83036 -8.01626 70.6849
CA -14.2798 -8.71989 33.6855
CA 20.2105 -21.0522 41.1624
CA 17.2645 -7.63038 49.29
CA 24.1754 -2.9775 46.4371
CA -4.7093 -5.65575 36.2278
CA 20.6854 6.74411 7.80402
CA 4.92134 17.8461 22.8383
CA 20.8541 -16.8071 59.9839
CA 5.5134 -14.526 75.1881
CA 0.05366 0.766871 42.7666
CA 40.3308 -22.0115 57.7338
CA -14.1605 1.68998 43.4898
CA 18.3194 5.87665 52.9038
CA 13.1709 -7.70382 74.7867
CA 12.6045 8.5084 34.0693
CA -3.37175 7.08292 26.6712
CA -11.9378 13.0258 43.478
CA 31.2981 -15.089 49.7085
CA 25.6801 11.3238 49.3944
CA -14.526 -5.59815 58.8346
CA -21.9302 6.99094 33.8826
CA 8.62562 -22.0778 64.8703
CA 28.7915 -0.0956439 60.3131
CA -9.08722 5.35549 48.4444
CA 16.3307 13.4628 31.8594
CA 20.5879 16.3506 49.9539
CA 19.6497 -29.1457 61.8551
CA 32.1666 10.0757 59.9096
CA 14.2491 13.2036 20.3415
CA 1.7688 18.8805 26.024
CA 9.50981 -6.53787 34.7115
CA -11.9281 9.15504 34.6479
CA 11.5734 -30.1931 62.6897
CA -10.013 1.92396 46.7685
CA 34.72 -19.2416 46.6089
CA 9.53567 -17.0076 71.8652
CA 23.4519 -0.395989 43.6104
CA 8.28747 -16.8528 73.9145
CA 13.71 12.8372 54.0059
CA 24.0725 -6.21579 60.841
CA 32.8119 -13.9292 53.3028
CA 7.27809 14.0596 25.4055
CA 9.44718 -7.85596 71.4818
CA 0.0811508 17.368 23.9682
CA -3.33048 -28.3626 43.2995
CA -9.92227 8.15247 48.2848
CA 27.1695 -12.4221 69.7191
CA 22.6224 -3.81866 41.9764
CA -9.75434 -22.3029 33.7868
CA 45.5243 -17.7271 51.9364
CA -13.0501 -7.57448 28.5062
CA 2.72451 2.96572 53.3564
CA 5.36157 -23.2825 53.4195
CA 31.6776 -1.8582 54.277
CA 27.1011 5.21854 56.2437
CA 0.317614 -12.2189 60.338
CA -9.84395 -13.5537 43.6207
CA 26.1962 -3.05564 69.0645
CA 14.7719 2.1127 37.1145
CA 13.5057 -2.42245 75.9189
CA -23.9484 -9.06555 56.735
CA 18.0254 22.7206 33.4767
CA 15.3879 -17.4345 57.0928
CA 21.9403 6.15403 40.4959
CA 8.99819 -21.4334 70.9123
CA 15.6354 -18.1841 33.9983
CA -5.28371 9.18973 29.6552
CA 6.69914 -6.18022 70.9697
CA 25.0751 -5.33393 28.7954
CA 15.312 -14.7858 38.6935
CA 25.336 13.8288 62.9429
CA 8.12097 -15.2307 71.8953
CA 0.467794 -1.37831 56.5157
CA -4.82057 4.91248 25.4062
CA 23.2532 -11.8496 44.6233
CA 26.9618 -7.28694 45.8802
CA 19.3005 -15.8644 55.1192
CA 11.6079 4.83067 53.4727
CA 17.7225 -17.3315 76.4773
CA 17.5145 8.13827 48.6093
CA 12.0852 -9.90588 74.7718
CA 8.59973 -19.4205 76.0873
CA 7.36698 -17.6734 65.4029
CA 40.2967 -29.8156 58.1824
CA 18.2966 2.67838 64.8661
CA 24.3172 1.27443 35.806
CA 8.06348 -7.66851 48.6846
CA 23.3391 -1.42478 28.5102
CA 18.0954 -17.6638 40.6939
CA -2.8665 0.0725455 29.7461
CA -24.0553 -5.21754 49.5769
