489

CA 10.5191 14.4318 33.9834
CA 14.7173 18.9481 37.4127
CA 16.164 13.0599 40.2421
CA 17.7016 -28.1838 58.0793
CA 11.7025 16.7495 19.1153
CA 13.7558 -25.4893 70.8951
CA 15.8818 0.314921 34.7875
CA 9.55141 -6.27792 61.9351
CA 24.324 9.50226 53.6333
CA 25.1187 -7.64584 31.3172
CA 19.4053 -2.79176 46.1886
CA 15.5436 -9.77977 64.2001
CA 24.3306 -17.345 71.4282
CA 29.0843 -10.5768 52.8159
CA -5.58503 4.12275 51.5094
CA 3.67388 -2.47975 40.13
CA 24.4758 -32.5833 62.7645
CA 32.6244 -18.2499 47.2221
CA -2.80591 10.7318 46.6695
CA 15.9598 7.44248 46.9659
CA 51.0003 -19.8249 67.7117
CA 20.0839 -16.6149 76.5779
CA 35.3443 -17.7142 63.4547
CA 10.7359 7.50377 36.5689
CA 22.1652 -7.54442 31.1675
CA 18.0118 0.0389114 39.7421
CA 14.3382 15.409 19.6619
CA 32.9984 -26.1769 45.1395
CA 19.3205 -18.2072 60.1397
CA 25.7007 -40.946 60.3094
CA 11.8307 12.6419 22.7341
CA 29.316 5.47854 55.2453
CA -13.5326 -15.2514 42.49
CA 25.9488 -11.4428 45.4521
CA 42.1547 -23.666 56.3721
CA 45.524 -19.369 52.6433
CA 23.5782 1.9597 28.0271
CA 8.57618 17.6278 29.4739
CA 15.8274 -26.4727 62.5415
CA 9.49485 -26.0511 66.1568
CA 7.84727 -19.4232 52.7584
CA -7.3196 15.3127 29.4576
CA 9.95169 7.34481 51.8348
CA 32.1463 10.6903 60.9633
CA 13.7694 9.25157 37.3314
CA 21.5844 -0.567181 34.3128
CA 15.2228 -7.22124 74.0469
CA 15.631 7.7228 21.3159
CA 17.6418 6.9372 40.6252
CA 32.5742 -26.7811 58.5293
CA 8.45995 -20.6813 73.938
CA 5.01164 -19.0255 46.806
CA -5.14657 8.00495 39.2383
CA 41.2204 -21.5336 55.0002
CA 8.40638 -14.5289 69.4223
CA 11.5586 9.22855 36.6416
CA 37.0375 -7.25112 48.6353
CA -4.27408 -29.3677 35.0995
CA 34.1341 -1.54745 63.6651
CA 17.3982 -10.9959 45.9909
CA 27.1521 1.14567 61.5388
CA 27.5932 -7.05238 48.4835
CA 37.5311 -22.8178 73.296
CA 35.1329 -7.19421 59.2703
CA 13.4383 -21.2186 56.1227
CA 18.3648 -1.09801 33.1841
CA 14.9611 7.45844 9.44404
CA 10.9333 -21.0509 70.3668
CA 33.9595 -24.7696 58.5084
CA -16.8929 -14.417 39.9068
CA 20.4743 9.94971 11.5563
CA 4.16892 -19.7091 76.2669
CA 22.2692 -5.81006 27.1211
CA 19.2147 -6.0943 46.4625
CA 28.7861 -19.3956 47.7654
CA 4.38397 -15.7132 74.5675
CA 39.3063 -8.01517 53.3654
CA 31.6197 -22.759 44.8936
CA 31.1174 12.612 63.9599
CA -16.4818 1.73603 44.009
CA 15.6333 8.96321 45.8353
CA 25.2332 -29.7088 57.7272
CA 31.8383 -16.3003 44.7338
CA -3.22143 -16.4911 42.1003
CA 31.5179 -8.45713 25.0873
CA 33.2538 -5.68121 51.2753
CA 20.2096 5.85451 59.8686
CA 9.50799 -19.4471 44.9749
CA 19.2704 8.19725 44.86
CA 16.7324 15.1148 42.7558
CA 25.7292 -8.06046 59.9932
CA 29.0011 10.8104 58.3465
CA 13.2867 6.32385 38.4168
CA 36.0289 -12.6233 57.4622
CA 36.7743 -13.3657 51.0429
CA 45.0718 -20.269 63.6281
CA -9.30758 11.9909 30.8223
CA -15.1208 -13.1022 46.3927
CA 7.51231 13.8854 22.8868
CA 12.515 -31.2385 58.4892
CA 34.7908 -27.4995 41.8068
CA 6.23458 -15.6224 42.6484
CA 45.9742 -13.1914 51.1043
CA -15.2751 -8.62116 45.9295
CA 18.5255 1.56288 38.0211
CA 22.6683 -27.3611 58.7498
CA 23.4942 -23.4774 52.5639
CA -7.00456 4.94286 61.1301
CA 32.414 -13.9548 45.2474
CA -11.6208 -1.736 49.1965
CA 8.85845 -22.4937 75.6935
CA 17.0965 -20.985 75.2973
CA 15.8017 -26.3362 57.8958
CA 16.2562 -14.9937 64.9791
CA 13.5161 -20.5984 73.981
CA -6.54722 -14.8429 45.6569
CA 28.6412 -15.8362 56.9629
CA 18.1037 -20.8086 61.3
CA 26.6166 -21.202 60.1749
CA 15.7169 8.31842 17.9585
CA 16.7554 1.40515 28.5844
CA -10.3234 -17.5485 39.5908
CA 27.9886 -7.75862 28.3456
CA 15.7892 -23.9329 57.063
CA 21.7276 -14.0268 72.8149
CA 22.6294 -14.0938 66.4577
CA 33.4624 -16.8406 69.867
CA 10.5501 1.96797 36.053
CA 29.6518 -20.3085 46.1908
CA 26.1379 -22.61 58.0366
CA 18.3202 -10.0451 72.4198
CA -11.2022 13.2698 45.4853
CA 7.24736 1.73144 53.6816
CA 16.1911 -9.0907 50.9719
CA 16.6225 1.12574 39.2553
CA 22.5553 10.8084 13.3664
CA -16.8892 -1.8992 45.788
CA 0.411232 -17.8102 45.1556
CA 16.4728 4.35855 44.6588
CA 20.4377 -26.0834 54.3787
CA 33.0127 -19.6807 64.1152
CA 33.496 -12.694 72.5681
CA 30.6008 9.40362 58.5715
CA 12.5193 -20.2858 54.5813
CA 12.129 2.00404 37.5768
CA 29.8968 10.7971 61.6607
CA 19.2909 -22.46 73.5149
CA 33.5757 -22.4652 45.1895
CA 18.4759 4.78948 58.0427
CA 5.29076 -18.2343 75.2877
CA 35.7854 -12.2055 54.1945
CA 20.2249 19.5712 40.1531
CA 12.2764 13.4813 19.553
CA 24.8089 -29.5472 61.3829
CA 28.9977 -18.5588 57.1398
CA -14.5847 -3.17209 50.4683
CA -18.6143 -8.8628 49.5788
CA 10.1622 -21.3875 72.8214
CA 11.8833 -19.5707 42.6617
CA 31.8405 -21.3259 42.8354
CA 21.2266 -21.1792 48.1863
CA 16.3866 18.3255 20.5372
CA 19.0447 8.85573 52.6108
CA -5.8799 11.7454 49.2433
CA 24.5923 -25.0501 59.9174
CA 31.7599 -4.26183 50.0513
CA 33.6692 -4.52095 22.0045
CA 14.9768 -16.6869 41.0821
CA 31.2025 -22.5192 57.7227
CA 31.7552 -19.3322 66.9645
CA 1.45632 -0.419032 42.8039
CA 39.0613 -24.091 61.4326
CA 10.6757 -11.2016 52.8342
CA 12.4296 -27.2753 55.4167
CA 15.5446 -17.6343 61.4293
CA -9.49996 1.79007 56.7753
CA 10.0779 16.0989 47.4346
CA 7.31144 -10.131 61.4941
CA 29.7744 12.5349 60.3733
CA 24.973 1.48614 59.4724
CA 5.48097 5.69429 53.2092
CA 8.89903 -18.5567 73.6873
CA 15.6049 11.3124 13.7522
CA 35.356 -14.1318 55.6807
CA 14.0481 0.261379 43.1155
CA 13.8151 -14.2914 55.5095
CA 16.4104 11.6873 9.14912
CA 13.8394 10.2117 46.464
CA 4.78742 -17.283 72.7103
CA 15.655 20.6032 16.8653
CA 25.9439 -36.6434 61.0353
CA -1.46676 -1.35944 41.2477
CA 30.6097 -3.04104 66.7035
CA 24.8459 -15.608 61.5315
CA 27.2567 -6.98016 54.5238
CA 14.79 5.64758 20.7493
CA 15.8324 -17.3563 29.5308
CA 4.32983 -22.4843 77.8665
CA -0.56841 -2.68638 39.6527
CA 22.463 -39.8343 59.9328
CA 26.5066 9.58457 60.5
CA 0.0361037 -4.36901 38.1619
CA -3.032 -18.0459 37.343
CA 16.7998 -24.013 75.144
CA -4.46488 6.98308 44.7732
CA -16.9652 -17.8015 37.9604
CA -3.86572 -0.509667 47.9635
CA 33.3302 9.96491 62.6701
CA -1.56868 -15.2105 61.3266
CA 22.2625 0.0365081 42.1904
CA 9.33746 12.2771 18.6565
CA 9.86527 3.30537 53.7771
CA 23.5773 -15.2563 63.2318
CA 17.9877 -2.34937 25.7356
CA 10.7967 -28.9651 69.4045
CA 20.776 12.9256 57.7566
CA 6.04457 -23.0209 77.1123
CA 16.3821 -25.2895 59.3864
CA 11.3687 2.65295 33.6197
CA 43.9184 -12.3424 51.7559
CA -7.13862 7.25514 59.2188
CA 45.7778 -26.5002 64.9088
CA 32.3892 -24.5942 64.6316
CA 15.5652 -14.5708 56.5063
CA 45.0358 -29.915 62.774
CA 16.4013 7.89432 8.05034
CA 25.005 -26.5649 71.1245
CA 16.6183 -0.675082 37.9646
CA -3.64925 -5.78005 39.5986
CA 14.0229 12.6676 32.2334
CA 42.4198 -17.2825 52.2949
CA 35.3927 11.9454 63.1222
CA 1.17953 -20.5946 69.0465
CA 17.2137 2.63014 57.3464
CA 16.3071 -4.22488 32.7575
CA 21.1891 -12.9325 45.7759
CA 21.0834 2.7516 61.7587
CA 28.5422 -24.4048 45.216
CA 6.55055 13.0496 48.1736
CA 11.5274 -16.9436 55.0495
CA -1.43305 9.5353 45.819
CA 14.1518 8.59956 20.1809
CA 23.8578 -21.9212 55.2894
CA 11.779 -13.0481 62.0623
CA 18.1133 5.12056 11.6084
CA 30.9692 -5.46021 66.5078
CA 12.6139 -24.9408 77.4283
CA -12.8589 3.52699 55.1153
CA 24.2086 -0.833472 36.2564
CA 21.6816 15.9869 48.3328
CA 33.8961 7.73838 63.9673
CA 11.8849 -20.9101 59.0329
CA 6.12652 -4.79355 42.6143
CA 17.0882 -4.47689 77.847
CA 33.1907 11.7443 68.4703
CA 34.552 -3.81859 65.1222
CA 15.8474 8.97268 53.2098
CA 10.6903 12.0204 17.0431
CA -7.18189 6.56296 35.3925
CA 24.9186 -18.8694 57.8541
CA 33.4426 0.00411028 66.0937
CA 15.6341 -4.06019 34.836
CA 17.9497 -1.23216 44.9833
CA 24.1856 13.4923 60.076
CA -7.8078 -5.72185 43.1659
CA 37.4103 -19.6544 48.1763
CA -0.2315 -16.9088 62.4711
CA 45.63 -21.9277 62.6612
CA 12.4485 -21.3798 66.9319
CA -10.351 -1.31189 52.3614
CA -9.37969 4.43986 51.1791
CA 3.52637 -10.9579 70.3673
CA 35.6381 -6.57502 51.804
CA 44.5068 -29.8868 68.812
CA 1.45836 -14.4271 62.0151
CA 41.1885 -20.4197 63.7207
CA 14.7955 12.9396 42.5063
CA 21.3273 1.80674 38.5948
CA 27.9413 -24.357 53.638
CA 6.68083 -23.9018 72.2491
CA 8.9785 8.72492 40.7996
CA 34.3934 -2.06452 68.9874
CA -11.8103 -6.51645 36.6388
CA -9.81096 7.73654 34.0589
CA 17.9901 19.5632 42.4825
CA 5.04948 -20.934 73.8215
CA 10.6446 -12.9853 56.1133
CA 19.5059 5.52847 39.3652
CA 42.6674 -16.8373 66.8158
CA -9.31862 9.36925 61.0072
CA -6.0678 3.57447 33.0641
CA -15.7581 -21.0229 38.0447
CA 22.2679 -19.5293 51.8576
CA 11.5267 -25.2631 70.2672
CA 32.4641 -3.75846 24.6056
CA 31.3137 -0.695688 67.6454
CA -0.790253 -18.9392 32.8549
CA 12.0633 -18.4484 55.9023
CA 5.87464 -17.6591 43.6788
CA 28.3257 14.5084 65.7817
CA -0.115374 -3.35576 41.4081
CA 24.1822 -16.5618 57.5872
CA 35.7582 -1.10513 65.5828
CA -3.66306 4.66537 45.087
CA 36.9207 -19.8489 72.2473
CA 20.7736 -19.6441 60.1794
CA 22.6227 8.37636 59.4549
CA 32.6989 -24.5019 43.9473
CA 30.6899 0.911473 66.1173
CA 32.7285 15.7286 67.5014
CA 13.4592 15.7185 36.1365
CA 37.639 -14.2251 52.7497
CA -7.77521 -19.5456 36.852
CA -12.0065 -20.2017 39.293
CA 10.4812 -16.3725 52.5799
CA 29.5488 4.48602 65.1845
CA 28.761 11.1443 55.6425
CA 14.9551 7.13629 52.0166
CA 45.9773 -20.2983 51.1088
CA 24.9382 -27.4177 61.8785
CA -13.6032 -1.18578 43.6603
CA 16.0312 -29.4841 58.5863
CA 26.8635 0.617029 36.9524
CA -20.3201 3.04626 45.5649
CA 27.0871 -17.4958 67.249
CA 38.75 -5.96562 48.1303
CA 8.12393 14.6946 30.7607
CA -11.9927 -5.79891 39.4678
CA 30.808 0.685261 60.5256
CA 52.2685 -18.1094 67.69
CA 18.1179 -23.1975 70.4771
CA -8.06409 4.59676 35.7657
CA 45.563 -27.5985 70.478
CA 15.9873 6.24177 53.2473
CA 18.9717 -15.8737 74.0222
CA 8.58445 -26.7896 70.0859
CA 18.3439 2.17214 41.5223
CA 15.7037 -18.6739 70.1048
CA 11.5597 -19.9522 74.4786
CA 11.8444 11.396 51.5882
CA 18.8104 -15.9119 66.925
CA 32.242 -13.2929 50.0558
CA 13.9874 10.3703 23.0455
CA 18.1357 -9.17185 50.2859
CA 29.177 6.20199 64.2129
CA 11.3911 -14.988 63.1727
CA 12.1609 -0.620762 33.5614
CA 17.5111 -28.2164 60.1964
CA 24.9933 3.40697 62.6939
CA -1.04917 2.79858 46.057
CA -4.44557 -16.5478 44.3915
CA 24.8199 -15.877 68.7934
CA 3.30496 -2.10834 52.9758
CA 21.9306 -0.637229 46.614
CA 14.787 -10.9542 65.8068
CA 21.755 -22.0512 71.5654
CA 33.3223 -20.156 51.6466
CA 24.5966 15.525 51.606
CA -17.8381 -0.940174 44.3014
CA 24.35 -20.4223 46.8413
CA 41.2684 -17.847 49.2346
CA 9.21714 -15.8455 60.8267
CA 32.3576 8.34658 59.5401
CA 21.1802 -20.047 44.5663
CA 30.7988 -13.8405 53.6536
CA 12.0615 -3.90113 61.2768
CA 23.6142 -17.7762 52.3621
CA 17.9015 -3.9608 46.9476
CA 41.9166 -12.5173 49.1817
CA 35.2048 -17.5489 60.032
CA -12.6349 3.73598 49.9033
CA -21.7059 -8.40694 50.5144
CA 23.5606 -13.4657 71.635
CA -2.32507 1.25262 42.7698
CA 4.55408 0.643494 51.0152
CA 17.6638 4.235 32.54
CA 6.47891 -19.3041 76.7049
CA 47.5915 -14.5401 48.7619
CA 14.2879 -30.3121 70.0486
CA 34.3513 -4.90511 49.6285
CA -11.3222 -22.5736 35.2029
CA 32.3853 -15.6413 55.5619
CA 28.1024 -21.4403 49.3849
CA 36.4624 -16.59 60.9995
CA 29.3353 9.61499 63.4361
CA 31.1758 -24.5665 41.3939
CA 23.4051 -18.9791 54.2925
CA 20.7173 -28.1646 58.7803
CA 14.345 -27.027 64.2384
CA 20.7787 1.13314 33.0752
CA 18.9752 -17.5514 44.5699
CA 35.4561 -17.5162 56.4602
CA 32.5815 -5.82003 23.5371
CA 27.9407 -1.15943 57.6594
CA 42.8881 -15.1258 54.2735
CA 15.5785 -22.2269 59.9381
CA -2.58158 -1.42937 58.8241
CA -2.57706 2.43943 40.9995
CA 32.05 -25.2544 55.0928
CA 12.5398 -26.0146 62.5667
CA -15.2775 12.7065 29.003
CA 20.9524 -15.0284 37.6382
CA 34.8694 -19.5561 73.076
CA 20.6854 6.74411 7.80402
CA 4.92134 17.8461 22.8383
CA 26.2684 -9.37538 56.8966
CA 12.9982 -12.1428 43.8152
CA 0.05366 0.766871 42.7666
CA 13.6083 -7.01179 66.427
CA -14.1605 1.68998 43.4898
CA 12.0878 -17.7025 59.0394
CA 10.6229 -8.77763 68.7154
CA 19.4552 -18.2468 37.8351
CA 6.12011 -7.00434 65.3907
CA 36.1754 3.87708 65.3974
CA 32.4504 -28.771 60.6633
CA -7.6092 1.20281 61.6949
CA 25.3385 -3.26787 48.5585
CA 22.7803 -4.23545 78.619
CA 8.62562 -22.0778 64.8703
CA -23.5084 3.28043 46.3695
CA 14.2574 -15.9257 72.7509
CA -15.9859 -7.49905 38.3577
CA 11.3782 11.1508 35.1413
CA 5.9964 -0.943325 52.9434
CA 25.9421 -14.0189 65.4284
CA 33.5829 -17.6265 63.0089
CA 6.33095 10.7525 23.0934
CA 7.31028 -15.0155 74.6708
CA 17.6624 -28.1585 55.7359
CA 11.5734 -30.1931 62.6897
CA -4.91706 -19.3756 36.8211
CA 20.7813 13.4113 46.6492
CA 26.709 -30.0011 63.8101
CA -11.4196 2.93095 51.7249
CA -1.65691 -12.7098 60.9201
CA 11.7501 -11.7041 47.9254
CA -16.0493 -6.41611 53.8225
CA -1.79317 -17.9531 44.4218
CA 7.27809 14.0596 25.4055
CA 6.6826 -18.5703 73.8365
CA 43.3082 -23.9046 53.9514
CA 24.8729 -6.34494 47.0287
CA -17.0975 -6.19064 47.5341
CA 30.3274 -8.66918 50.9855
CA 2.18468 -20.1269 75.5462
CA 24.7073 -29.6977 63.2023
CA 25.6643 -14.3536 71.9412
CA 41.1537 -28.0911 59.2127
CA -0.0863359 -0.300516 49.9222
CA 29.6424 -2.35566 61.0812
CA 3.75881 -13.9365 68.9582
CA 27.1011 5.21854 56.2437
CA 3.34468 2.61522 44.2862
CA 41.6122 -19.827 53.5979
CA 42.4232 -22.402 64.2933
CA 19.2757 -5.30992 35.7939
CA 15.9821 17.3156 46.1371
CA 34.5798 -3.58757 53.3659
CA 6.4891 -16.8499 75.2668
CA 15.3879 -17.4345 57.0928
CA 21.9403 6.15403 40.4959
CA 8.99819 -21.4334 70.9123
CA 15.6354 -18.1841 33.9983
CA 13.014 12.5951 46.1668
CA 6.69914 -6.18022 70.9697
CA -13.8664 15.1334 30.6444
CA 11.0135 11.7203 14.6193
CA 28.7791 -8.38484 48.8019
CA 3.38839 -12.6588 62.1306
CA 0.467794 -1.37831 56.5157
CA 12.7923 -26.5377 58.5999
CA -1.05064 3.67897 59.3125
CA 20.3495 11.2389 52.5849
CA 35.7377 -31.1895 58.7061
CA 31.253 -25.9344 53.0417
CA 17.7225 -17.3315 76.4773
CA -13.5874 -23.6798 35.0463
CA 20.6613 -20.6407 73.516
CA 23.4987 -0.514289 30.9931
CA 37.8276 -10.5213 52.4408
CA 6.17924 -15.6466 70.7359
CA 13.2976 -8.50317 61.2126
CA 15.4247 -3.83794 78.9121
CA 49.8891 -19.3583 64.4379
CA 18.5087 -26.9904 61.8055
CA 18.0954 -17.6638 40.6939
CA 24.9959 -24.7862 55.6187
CA -24.0553 -5.21754 49.5769
