489

CA -6.95861 9.05091 31.3072
CA 21.1892 -0.614467 59.0035
CA 40.1537 -3.23132 66.8491
CA 21.702 -24.9016 52.7845
CA 42.4712 -1.23081 64.5622
CA 13.7558 -25.4893 70.8951
CA 15.8818 0.314921 34.7875
CA 9.55141 -6.27792 61.9351
CA 24.324 9.50226 53.6333
CA 25.1187 -7.64584 31.3172
CA 10.0367 -13.7682 60.8128
CA 12.9892 11.6085 16.0375
CA 24.3306 -17.345 71.4282
CA 5.97779 -6.47632 62.1833
CA -5.58503 4.12275 51.5094
CA 3.67388 -2.47975 40.13
CA 22.8232 -8.88136 33.9407
CA 2.95479 -4.80279 57.9524
CA -2.80591 10.7318 46.6695
CA -14.247 -18.2458 35.7786
CA 28.8525 -4.73232 68.519
CA 17.1269 11.831 54.9997
CA -1.17672 -5.15555 56.6177
CA 34.8412 -6.88149 21.6049
CA 14.8567 -1.53843 34.0628
CA 27.3772 -22.9186 43.2054
CA 14.3382 15.409 19.6619
CA 32.9984 -26.1769 45.1395
CA 3.79986 -23.5161 69.0664
CA 25.7007 -40.946 60.3094
CA 18.7361 -12.1881 42.3338
CA 15.6066 -8.79672 59.5811
CA -12.6931 16.5204 29.7914
CA 17.5652 4.69565 39.4406
CA 32.8973 -26.5635 47.5137
CA 19.0551 25.2865 15.282
CA 8.76207 -24.7785 69.3907
CA -3.19222 -17.3585 69.9643
CA -4.13516 -15.5325 44.5194
CA 9.49485 -26.0511 66.1568
CA 7.84727 -19.4232 52.7584
CA 12.5798 -31.0164 73.1296
CA 20.778 7.1279 54.4703
CA 10.9322 -10.6568 62.2891
CA 26.7914 3.08348 61.1045
CA 15.0224 -21.0337 40.3443
CA 15.2228 -7.22124 74.0469
CA 15.631 7.7228 21.3159
CA 50.1273 -23.1289 63.4259
CA 3.58234 -20.6024 50.3601
CA 8.45995 -20.6813 73.938
CA -6.88446 8.80872 49.4453
CA -5.14657 8.00495 39.2383
CA 41.2204 -21.5336 55.0002
CA 7.20162 -17.3207 70.7349
CA 11.5586 9.22855 36.6416
CA 37.0375 -7.25112 48.6353
CA 20.3221 14.8532 24.4722
CA 34.1341 -1.54745 63.6651
CA 18.3235 2.77863 9.24467
CA 27.1521 1.14567 61.5388
CA 19.6584 -24.0017 33.1656
CA 25.6561 15.0074 60.5441
CA 6.95844 -10.8139 65.7198
CA 43.6313 -15.1298 58.5206
CA 18.3648 -1.09801 33.1841
CA 29.2549 -27 45.5164
CA 10.4434 -29.6313 61.2445
CA 33.9595 -24.7696 58.5084
CA 50.7734 -23.2471 61.512
CA -12.2808 0.355022 41.8013
CA 10.149 -26.0352 70.876
CA 22.2692 -5.81006 27.1211
CA 6.40374 3.15179 49.6356
CA 33.9248 -26.9672 65.4147
CA 15.3479 -8.84469 33.1478
CA 29.0622 -22.6123 48.0755
CA 2.07518 -3.09643 58.105
CA 27.7901 -3.83301 54.0394
CA -16.4818 1.73603 44.009
CA 13.3922 2.80463 32.9787
CA -13.588 -3.21942 41.6927
CA -17.2988 -0.0127354 43.2712
CA -3.22143 -16.4911 42.1003
CA 31.5179 -8.45713 25.0873
CA -14.1308 17.2095 27.9378
CA 20.2096 5.85451 59.8686
CA 9.50799 -19.4471 44.9749
CA -2.11788 4.80383 43.9263
CA 11.4086 -23.7655 65.7863
CA 25.7292 -8.06046 59.9932
CA 14.4673 -11.2952 61.1557
CA 13.2867 6.32385 38.4168
CA 36.0289 -12.6233 57.4622
CA 19.5065 -24.6168 53.2683
CA -1.77586 -23.2155 47.8995
CA -9.30758 11.9909 30.8223
CA -15.1208 -13.1022 46.3927
CA 25.0057 7.4309 39.786
CA 18.4098 -16.8054 63.3892
CA 21.039 16.4069 16.7368
CA 6.23458 -15.6224 42.6484
CA 15.2238 -14.2615 34.9468
CA -15.2751 -8.62116 45.9295
CA 2.06854 2.35894 59.524
CA 22.6683 -27.3611 58.7498
CA 42.4659 -21.7876 52.1245
CA 24.2576 -22.3167 51.6136
CA 32.414 -13.9548 45.2474
CA 19.0158 2.5111 37.9848
CA 41.9588 -11.491 50.9446
CA 17.0965 -20.985 75.2973
CA 47.2452 -19.4476 65.8304
CA 16.2562 -14.9937 64.9791
CA 24.7925 -4.10829 52.6099
CA 20.9578 -16.0001 76.7332
CA -22.4896 -6.31889 55.3042
CA 13.3915 -5.44237 31.0231
CA 9.53007 -20.0085 41.937
CA 17.1471 -13.8164 61.3857
CA 36.2693 -22.9793 65.7675
CA 11.0446 -31.9774 55.6858
CA 27.9886 -7.75862 28.3456
CA 32.5604 -19.9065 57.7333
CA 30.7756 -20.3031 57.3272
CA 36.3318 -25.068 62.4222
CA 33.4624 -16.8406 69.867
CA 10.5501 1.96797 36.053
CA 29.6518 -20.3085 46.1908
CA 26.1379 -22.61 58.0366
CA 31.621 -13.612 47.4484
CA 24.4399 -4.45381 26.1388
CA -11.306 -0.76754 42.9796
CA 16.1911 -9.0907 50.9719
CA 22.1047 -30.1198 62.0716
CA -9.93642 15.332 30.1807
CA -16.8892 -1.8992 45.788
CA 0.411232 -17.8102 45.1556
CA 16.4728 4.35855 44.6588
CA 21.5461 -27.8046 53.1367
CA 9.49057 11.1244 42.8941
CA 33.496 -12.694 72.5681
CA 2.97856 -0.0492628 38.0615
CA 32.5563 -1.30315 62.7857
CA 12.129 2.00404 37.5768
CA 29.8968 10.7971 61.6607
CA 40.4183 -24.7965 57.7353
CA 33.5757 -22.4652 45.1895
CA 16.7098 2.64421 53.56
CA 5.29076 -18.2343 75.2877
CA 35.7854 -12.2055 54.1945
CA -1.26318 -2.89128 48.3341
CA 22.0087 -18.8321 59.0189
CA 24.8089 -29.5472 61.3829
CA 28.9977 -18.5588 57.1398
CA -14.5847 -3.17209 50.4683
CA -18.6143 -8.8628 49.5788
CA 7.54096 -30.1525 72.7075
CA 26.4774 -16.7797 68.9841
CA 30.6659 -25.3496 44.3833
CA -23.0059 6.09516 43.8222
CA -13.5816 -18.3264 37.912
CA 6.5387 -8.67753 66.3686
CA 26.0233 -22.904 50.5003
CA 24.5923 -25.0501 59.9174
CA 41.5075 -16.9283 57.2934
CA 33.6692 -4.52095 22.0045
CA 14.9768 -16.6869 41.0821
CA 31.2025 -22.5192 57.7227
CA 31.7552 -19.3322 66.9645
CA 1.23759 -13.1315 69.6977
CA 15.2569 -7.3082 36.2925
CA 10.6757 -11.2016 52.8342
CA 12.4296 -27.2753 55.4167
CA 15.5446 -17.6343 61.4293
CA -9.49996 1.79007 56.7753
CA 16.578 18.3378 40.4831
CA 10.1254 -10.1328 57.8609
CA 19.359 2.73089 35.3731
CA 15.0451 -14.2078 60.3938
CA 20.1426 -23.575 74.4419
CA 5.34465 -16.5058 68.9548
CA 15.6049 11.3124 13.7522
CA -13.1636 -13.7284 45.1429
CA 43.0763 -17.9223 54.7352
CA 29.6528 -15.563 53.72
CA 16.4104 11.6873 9.14912
CA 23.8755 -2.71048 80.2331
CA 4.78742 -17.283 72.7103
CA 15.655 20.6032 16.8653
CA 5.50256 -17.5367 65.4174
CA 23.9751 9.85224 62.8009
CA 30.6097 -3.04104 66.7035
CA 33.4724 -29.1157 44.8614
CA 27.1639 -28.7798 57.739
CA 25.3533 -9.57889 30.7196
CA 17.6362 -3.45127 24.2754
CA 4.32983 -22.4843 77.8665
CA 9.93329 12.5162 32.1482
CA 19.3859 -11.1897 71.5142
CA 26.5066 9.58457 60.5
CA 28.3977 -22.707 59.782
CA -3.032 -18.0459 37.343
CA 21.9425 -32.7554 64.6207
CA 31.3023 -6.09425 52.1483
CA 39.3388 -16.9838 44.5975
CA 17.9868 -14.3344 74.4525
CA 33.3302 9.96491 62.6701
CA 20.7515 -14.4514 47.4886
CA 11.7763 -26.7849 70.2344
CA 9.33746 12.2771 18.6565
CA 9.86527 3.30537 53.7771
CA 17.2556 -9.14799 74.42
CA 17.9877 -2.34937 25.7356
CA 35.4268 -4.37008 69.3652
CA 20.776 12.9256 57.7566
CA 24.7955 -22.2305 47.8105
CA 16.3821 -25.2895 59.3864
CA 0.633441 -19.3445 67.5004
CA 43.9184 -12.3424 51.7559
CA 1.13208 0.499297 46.984
CA -11.1784 -7.49015 42.8279
CA 21.3233 -10.7323 32.8852
CA 15.339 -11.1085 51.4252
CA 21.6343 -9.27904 46.8451
CA 16.4013 7.89432 8.05034
CA 25.005 -26.5649 71.1245
CA 21.8716 -16.4561 68.3833
CA -1.3458 -16.1066 47.2805
CA 43.3677 -25.0818 59.7894
CA 13.3384 -11.0724 67.339
CA 37.391 -16.8225 55.1066
CA 1.17953 -20.5946 69.0465
CA 17.2137 2.63014 57.3464
CA 17.2279 11.388 15.74
CA 21.1891 -12.9325 45.7759
CA 21.0834 2.7516 61.7587
CA 28.5422 -24.4048 45.216
CA -3.52444 -16.6827 71.7522
CA 16.2962 22.6525 39.7343
CA -9.71166 0.582204 53.1657
CA 35.6715 -9.66388 52.5856
CA 23.8578 -21.9212 55.2894
CA 11.779 -13.0481 62.0623
CA 18.1133 5.12056 11.6084
CA 10.9958 -12.3295 59.0182
CA 12.6139 -24.9408 77.4283
CA -12.8589 3.52699 55.1153
CA 24.2086 -0.833472 36.2564
CA -12.5827 -9.19016 42.2231
CA 16.4824 -9.23678 66.7617
CA 20.4319 -12.741 57.2339
CA 19.1043 4.31855 60.1475
CA 17.0882 -4.47689 77.847
CA 33.1907 11.7443 68.4703
CA 34.552 -3.81859 65.1222
CA 15.8474 8.97268 53.2098
CA 8.16194 -20.7314 68.3266
CA -7.18189 6.56296 35.3925
CA 25.6522 -15.1438 72.4334
CA 33.4426 0.00411028 66.0937
CA 15.6341 -4.06019 34.836
CA 19.4089 -15.0566 59.0818
CA 24.1856 13.4923 60.076
CA -7.8078 -5.72185 43.1659
CA 17.2764 24.6484 18.4334
CA -0.2315 -16.9088 62.4711
CA 25.5277 -29.8951 55.456
CA 25.0058 -5.23498 48.8694
CA -10.351 -1.31189 52.3614
CA -9.37969 4.43986 51.1791
CA 3.52637 -10.9579 70.3673
CA 34.8432 -3.04228 71.9168
CA 31.9107 -24.6337 67.1864
CA 1.45836 -14.4271 62.0151
CA 41.1885 -20.4197 63.7207
CA 5.80868 1.94144 55.6563
CA 36.1922 -21.9685 63.4859
CA -15.9484 2.28006 40.4981
CA 6.68083 -23.9018 72.2491
CA 8.9785 8.72492 40.7996
CA 34.3934 -2.06452 68.9874
CA -11.8103 -6.51645 36.6388
CA -9.81096 7.73654 34.0589
CA 17.9901 19.5632 42.4825
CA 5.04948 -20.934 73.8215
CA 25.4582 13.3009 58.2275
CA 19.5059 5.52847 39.3652
CA 42.6674 -16.8373 66.8158
CA 32.8054 -16.3436 42.4687
CA 7.59516 -27.0672 64.0718
CA -15.7581 -21.0229 38.0447
CA 22.2679 -19.5293 51.8576
CA 11.9372 15.431 49.1461
CA 9.22415 -10.4807 51.7313
CA 31.3137 -0.695688 67.6454
CA 27.3264 11.344 65.0417
CA 12.0633 -18.4484 55.9023
CA 19.6121 -15.0489 62.2059
CA 22.462 -2.8533 45.865
CA -19.6941 -7.41015 53.8873
CA 24.1822 -16.5618 57.5872
CA 35.7582 -1.10513 65.5828
CA -3.66306 4.66537 45.087
CA 42.661 -19.9426 55.6439
CA 10.0538 -10.7439 67.1688
CA 22.6227 8.37636 59.4549
CA -10.0173 5.17504 48.39
CA 30.6899 0.911473 66.1173
CA -3.02925 -15.8198 50.886
CA 35.646 -13.9016 75.4416
CA 37.639 -14.2251 52.7497
CA -7.77521 -19.5456 36.852
CA -12.0065 -20.2017 39.293
CA -9.75319 4.69495 53.0866
CA 30.4646 -18.5646 51.6635
CA 16.6975 13.2669 42.7498
CA 16.0371 -12.7691 45.4379
CA 45.9773 -20.2983 51.1088
CA 24.9382 -27.4177 61.8785
CA -13.6032 -1.18578 43.6603
CA 41.0006 -17.5776 62.8382
CA 0.831576 -20.7527 49.1662
CA -20.3201 3.04626 45.5649
CA 16.3681 4.36757 52.2901
CA -4.56018 1.89823 64.3848
CA 8.12393 14.6946 30.7607
CA 34.5181 -15.1331 54.994
CA 46.4332 -21.3764 54.4723
CA 13.961 -9.48471 65.0302
CA 18.1179 -23.1975 70.4771
CA 32.9908 -9.56285 71.0754
CA 45.563 -27.5985 70.478
CA 15.9873 6.24177 53.2473
CA 18.9717 -15.8737 74.0222
CA 33.0781 -12.6437 52.8452
CA 18.3439 2.17214 41.5223
CA 14.0801 -4.39452 69.6194
CA -5.95479 15.2805 28.2132
CA 11.8444 11.396 51.5882
CA 13.2459 13.0708 18.2946
CA 8.5774 -14.6593 56.8389
CA 13.9874 10.3703 23.0455
CA 18.1357 -9.17185 50.2859
CA 29.7302 -28.51 52.4209
CA 53.6207 -21.0392 66.7126
CA 42.4444 -17.3285 45.1474
CA 3.69486 2.24657 50.7789
CA 20.2016 3.33841 40.9818
CA -1.04917 2.79858 46.057
CA 12.8358 -11.2985 62.7726
CA 33.5845 -16.5347 47.3313
CA 7.15643 -20.3545 71.8175
CA 20.2827 -17.8625 75.0212
CA 20.4702 5.05915 9.12366
CA 18.7074 -26.3474 72.212
CA 26.4014 -27.9561 60.6302
CA 17.737 -33.9452 63.8429
CA 31.8014 -11.1398 73.3692
CA 14.2677 -15.0575 64.7524
CA 41.2684 -17.847 49.2346
CA 9.21714 -15.8455 60.8267
CA -4.22703 8.16721 41.813
CA 21.2123 -25.6807 72.6099
CA -2.3142 4.45327 40.5935
CA 43.912 -24.0322 62.0407
CA 23.6142 -17.7762 52.3621
CA 8.97308 -12.3985 62.1611
CA 41.9166 -12.5173 49.1817
CA 14.0109 18.5937 41.6744
CA -12.6349 3.73598 49.9033
CA -21.7059 -8.40694 50.5144
CA -13.0973 -0.676997 36.2367
CA -2.32507 1.25262 42.7698
CA 20.9256 19.2824 44.8099
CA 17.6638 4.235 32.54
CA 8.64676 -27.7721 61.9705
CA 47.5915 -14.5401 48.7619
CA -9.01112 -2.07957 35.4223
CA 37.7484 -22.9577 61.0475
CA 18.797 18.069 17.8076
CA 10.3797 -23.8139 60.842
CA -7.18036 10.2682 47.8511
CA 8.89271 -12.3262 56.5378
CA 24.0337 -5.0206 37.0782
CA 22.992 -33.0891 60.7716
CA 39.4076 -23.6362 61.879
CA 48.1707 -21.1727 64.0632
CA 15.9534 -14.6395 67.2991
CA 35.598 -7.27868 24.455
CA -14.3154 -9.23452 44.3759
CA 24.3448 -6.62897 28.1614
CA 15.5957 0.586249 45.5366
CA 27.9407 -1.15943 57.6594
CA 18.9179 7.4364 38.4399
CA 15.5785 -22.2269 59.9381
CA -2.58158 -1.42937 58.8241
CA 18.4003 -19.6408 41.2963
CA 51.7147 -21.4441 61.9928
CA 12.5398 -26.0146 62.5667
CA 32.1908 -15.2525 74.0009
CA 20.9524 -15.0284 37.6382
CA 25.6781 -22.9617 61.0278
CA 15.4208 8.17025 39.2539
CA 5.91603 -27.4292 62.1129
CA 26.2684 -9.37538 56.8966
CA 12.9982 -12.1428 43.8152
CA 21.7017 -8.52726 48.6104
CA 36.6675 -19.14 51.4893
CA 45.845 -16.1501 52.8442
CA 19.2004 -4.46422 42.4899
CA 27.627 -10.4371 51.8584
CA 35.4666 -13.2047 73.5025
CA 18.8434 8.44206 41.1885
CA 21.0231 -5.04272 79.9725
CA 17.5693 -7.09217 69.7086
CA -7.6092 1.20281 61.6949
CA -12.0176 12.7332 31.4571
CA -5.34911 3.47658 38.2171
CA 8.62562 -22.0778 64.8703
CA -12.1209 -2.41292 37.367
CA 31.4785 -25.0404 42.2542
CA -15.9859 -7.49905 38.3577
CA 27.5404 -8.43559 50.3413
CA 5.9964 -0.943325 52.9434
CA 25.9421 -14.0189 65.4284
CA 33.5829 -17.6265 63.0089
CA 6.33095 10.7525 23.0934
CA -12.5121 -17.3772 36.3275
CA 15.2659 -12.7978 70.8493
CA 3.43218 -19.3016 73.0509
CA 29.2412 -1.87361 56.0025
CA 31.8315 -21.5473 45.0463
CA 35.4164 -10.8622 49.6212
CA 18.6589 -26.6384 56.6928
CA 20.2956 -21.8711 35.6594
CA 39.1056 -23.5946 64.8302
CA -16.0493 -6.41611 53.8225
CA -1.79317 -17.9531 44.4218
CA 7.27809 14.0596 25.4055
CA 6.6826 -18.5703 73.8365
CA -10.1283 -19.4713 38.0516
CA 18.3177 -21.2061 42.4391
CA -11.6856 5.41656 53.5554
CA 42.8015 -15.788 60.9899
CA 56.2657 -24.2789 61.6946
CA 24.7073 -29.6977 63.2023
CA 10.8934 8.91517 34.0296
CA 33.5832 -21.4171 65.0502
CA 17.1847 -28.0575 54.0439
CA 35.0135 -24.9247 64.6733
CA 3.75881 -13.9365 68.9582
CA 27.1011 5.21854 56.2437
CA 16.0666 2.92471 62.3836
CA 19.2772 -17.7495 65.7268
CA -14.1712 3.42088 51.8565
CA 19.2757 -5.30992 35.7939
CA 15.9821 17.3156 46.1371
CA 24.1186 -18.7969 74.1602
CA 25.9598 -19.1803 52.834
CA 30.2513 -0.120503 63.6183
CA 21.9403 6.15403 40.4959
CA 8.99819 -21.4334 70.9123
CA 15.6354 -18.1841 33.9983
CA 20.6574 11.7375 14.9787
CA 18.2103 -35.6614 62.152
CA -13.8664 15.1334 30.6444
CA 11.0135 11.7203 14.6193
CA 9.94775 -24.4316 72.978
CA 17.3091 -17.7413 58.008
CA 18.0588 3.31964 63.2862
CA -10.0845 -0.479256 46.6625
CA -0.0482928 -7.18882 37.6448
CA 10.9765 -32.105 74.8382
CA 30.1609 -3.73552 69.7683
CA 43.4906 -18.6498 64.2284
CA 15.0421 7.39635 44.2676
CA 18.8671 4.56672 6.2289
CA 20.6613 -20.6407 73.516
CA 23.4987 -0.514289 30.9931
CA 16.3323 -36.281 63.6015
CA 6.17924 -15.6466 70.7359
CA 4.12693 2.14645 46.0758
CA 27.8131 -15.4788 56.0917
CA 26.9226 12.9797 63.3739
CA 1.85219 0.507865 44.41
CA 20.4717 -17.6494 52.6135
CA 13.5044 -8.08475 70.1737
CA -24.0553 -5.21754 49.5769
