489

CA 6.28362 -14.2479 59.5395
CA 27.2513 -16.3572 51.3134
CA 4.23896 8.30891 32.9566
CA 16.3145 6.72044 64.6809
CA -11.413 -10.8278 55.1247
CA -6.06069 7.58997 79.7582
CA 2.20144 -7.7436 53.3778
CA 0.481416 13.0125 43.9916
CA 21.0754 -13.9879 53.7473
CA 9.68568 -8.96742 72.5061
CA 9.91967 -21.0045 21.3587
CA 3.4105 10.5694 46.1019
CA 11.7895 4.48125 37.3358
CA 25.3835 -0.00869248 42.1271
CA 17.2026 7.30517 61.1375
CA 6.69807 32.9038 63.688
CA 1.99095 -16.9672 51.1174
CA 35.9838 -9.32746 46.482
CA 19.4009 22.5132 35.6085
CA -19.5636 -10.744 46.4886
CA 29.4731 -12.6658 50.453
CA -27.9392 -16.2246 62.3883
CA 6.40258 9.21322 14.1413
CA -4.46666 15.884 90.2733
CA -25.2869 14.4069 48.7629
CA 1.62929 27.0487 42.5923
CA -17.502 -30.1941 25.8337
CA 16.4991 21.1429 38.2811
CA 4.71346 27.1088 37.8537
CA 17.0933 -19.156 57.9051
CA -6.65393 8.92268 77.7673
CA -15.2295 2.56985 55.8924
CA -6.58319 26.0094 74.4468
CA -2.48563 -13.872 34.0076
CA -1.34467 8.5509 38.4716
CA 5.50062 -18.1479 57.1954
CA -22.7741 -14.9416 23.2885
CA -32.442 8.39776 57.2066
CA 4.07658 26.893 40.6015
CA -5.80606 -11.0295 51.2368
CA 5.8286 12.4717 45.9596
CA 29.7398 1.4781 38.373
CA -20.0087 -14.0834 27.4639
CA -13.8881 2.57595 54.1329
CA 20.6384 -29.1253 74.4588
CA 15.237 20.9424 17.4829
CA 21.5182 10.5119 21.7725
CA 3.71475 4.80756 45.527
CA 36.056 -8.22402 56.5974
CA 11.6572 16.829 82.6576
CA -2.59085 -12.8723 49.613
CA 14.4272 14.0582 22.365
CA 4.07256 -17.7483 59.6731
CA 20.0185 -6.17457 51.3505
CA 11.3767 23.7586 77.6112
CA 24.9549 -6.07679 52.6095
CA -30.5867 -1.66305 66.3129
CA -0.31439 17.7312 39.6204
CA -5.19302 -10.3926 35.6223
CA 25.533 4.51543 67.7834
CA 18.9998 -32.796 74.2319
CA -2.61199 24.1184 35.2133
CA 9.22993 10.9043 16.9399
CA 11.9197 -3.43874 71.2929
CA -20.2584 10.9889 50.2365
CA 1.20825 -12.6786 59.3857
CA -0.667207 -1.61839 46.4767
CA -3.41569 10.1061 46.277
CA -17.841 -25.1347 32.6262
CA 3.5865 19.8497 46.3891
CA 1.22609 0.670425 33.0836
CA 24.3088 -15.9844 57.2823
CA 19.9143 1.47195 21.294
CA -14.7446 -19.7131 34.5336
CA -29.4444 -10.799 59.0735
CA -26.6262 -17.1752 63.6409
CA 13.1716 12.2315 31.9851
CA 27.1856 -13.1145 52.2003
CA 31.3067 -8.18861 37.3617
CA 17.852 8.16204 57.3462
CA 19.964 5.56714 61.42
CA -10.1498 -9.56397 71.0226
CA 5.33894 7.84501 17.958
CA 41.0527 -15.3215 55.7368
CA 1.93525 6.97426 38.0628
CA -1.14739 4.01387 47.8417
CA 7.32937 3.6625 47.1781
CA -19.2502 30.612 40.615
CA 10.3449 19.5984 43.2183
CA -10.0517 4.91809 43.1389
CA -2.83629 16.363 88.8671
CA -29.102 2.97976 50.8721
CA 7.89667 12.0025 15.5651
CA -28.3406 -16.8687 64.2604
CA -0.717272 13.932 41.9088
CA 32.057 -6.88713 64.9675
CA 18.7419 -4.59036 62.5557
CA 6.30606 12.2461 19.8622
CA 8.43304 19.6128 48.2348
CA 0.414544 39.734 52.2252
CA 28.5541 -1.47759 28.2875
CA -7.97085 10.5545 33.2285
CA 0.24701 4.77269 42.7248
CA 5.38104 -2.85994 43.5778
CA 0.519341 43.4566 57.8424
CA -4.19387 -35.9171 30.3793
CA 3.90823 -11.7272 24.3687
CA -32.3623 4.21267 55.5163
CA 2.75038 -14.9534 45.3484
CA 2.07379 31.5615 59.4864
CA 30.0947 -11.0546 61.6717
CA 20.0562 -2.06216 64.1544
CA -6.22253 -15.3958 36.8479
CA 6.48064 -5.95631 63.7275
CA 4.24357 6.8329 46.0037
CA -1.63762 4.85017 45.0394
CA 3.89958 13.2344 42.2123
CA -0.15958 1.17 50.8333
CA 31.2901 -9.81163 62.9444
CA -10.1274 -16.7591 58.7897
CA 16.0832 9.73664 31.7442
CA 1.31999 36.4374 27.9462
CA -28.1377 10.4411 46.9262
CA 32.4585 -9.77832 54.7233
CA 7.5955 21.4911 47.3127
CA 22.3737 -0.0183733 67.5571
CA 22.718 -28.3994 73.2232
CA 21.109 -7.97443 67.116
CA 12.1954 -3.16849 73.7091
CA 7.42515 -11.3012 25.8854
CA 43.8888 -5.11129 65.0559
CA 6.70989 19.6358 29.3823
CA 9.92614 -6.67544 44.1893
CA -6.72324 20.7843 41.2692
CA 3.95226 14.0736 20.7283
CA 46.2546 -5.47046 67.278
CA 28.3564 -3.15448 27.4031
CA -22.2884 -13.3058 42.1088
CA -5.85563 30.7415 70.8105
CA -9.60561 14.0166 33.4397
CA -0.438212 9.28596 44.7361
CA -4.92092 -22.3638 29.4883
CA 21.8292 -1.48299 24.0158
CA 24.1809 -7.32924 66.1098
CA 3.93355 -42.6125 33.7915
CA -37.2518 4.45699 57.5679
CA -8.64499 13.2814 31.4803
CA -0.496681 14.0007 37.8858
CA 2.8913 -13.4748 22.8173
CA 8.73965 13.1319 23.9669
CA 16.353 15.494 18.7523
CA 2.30614 17.1352 36.8508
CA 41.2713 -6.02856 67.1889
CA 20.8214 1.25944 39.1612
CA -16.9654 16.6305 49.2128
CA 26.4263 -15.7234 58.2981
CA -20.2642 -28.0912 26.3477
CA -6.82482 -22.1815 33.5069
CA 14.3798 1.47047 54.2785
CA 0.294486 -16.6887 47.1112
CA -1.14356 14.3093 23.0654
CA -30.0177 -6.47256 70.3229
CA 30.0614 -18.824 48.3759
CA -16.5397 -26.8475 29.1179
CA 15.0444 13.3102 29.5079
CA 4.57333 16.0763 33.5729
CA 1.95806 -17.8779 56.8085
CA 14.8055 -5.15524 75.6816
CA 3.31129 3.72141 35.2743
CA 0.799617 -23.6323 26.3216
CA 1.77262 33.4878 40.9518
CA 17.3381 9.91326 33.9407
CA 6.12079 10.5646 16.552
CA 10.1448 -9.51486 69.8796
CA 16.9189 16.5878 17.1945
CA 32.2909 -8.24674 66.7838
CA 31.6552 -6.8246 62.3465
CA 21.5192 0.454443 69.4383
CA -4.08633 2.94304 35.9179
CA -10.6566 7.33609 37
CA 6.99138 -7.56575 52.7673
CA 7.92006 11.7914 44.4044
CA 6.45447 -11.0254 54.5426
CA 2.94707 2.0212 41.6843
CA 2.48144 -14.2531 53.5114
CA 11.9274 7.01022 21.3522
CA -4.45784 8.87877 79.5903
CA -24.323 -16.2872 23.4962
CA 2.18116 -15.7922 47.258
CA 22.0316 -14.3063 56.3526
CA 16.7385 -6.00585 68.4361
CA 22.9226 1.91288 67.9088
CA 4.24292 10.1136 15.9606
CA 3.64482 34.6392 56.1928
CA 29.5681 -14.3788 49.5189
CA 16.1621 -3.13105 40.3657
CA 22.2427 -3.57891 44.1645
CA 11.2239 -10.6684 67.5702
CA 35.2347 -8.26732 64.2301
CA 31.677 -9.08617 51.1246
CA 4.87655 8.88468 45.4071
CA 9.57939 27.0614 39.5268
CA 4.0221 -4.93238 52.6214
CA -6.40934 6.28953 77.7763
CA -9.83411 16.227 31.2397
CA -0.78017 7.93026 51.149
CA -7.63335 -18.6272 57.1168
CA 8.50956 9.08332 41.8436
CA 8.03373 -9.14279 32.7905
CA 19.7553 -10.5565 65.7902
CA -17.9905 -13.3995 46.7747
CA -16.1364 -6.40303 85.4855
CA -0.949489 1.93576 44.0997
CA -8.00211 8.72281 40.4983
CA 26.4812 -13.2659 70.3438
CA 35.4054 21.4925 57.6803
CA 16.2366 -1.31735 64.4579
CA 17.1855 -2.40279 47.9873
CA -5.00656 -6.07563 73.8721
CA 9.00493 19.6014 38.5401
CA 5.33207 -5.30044 19.1248
CA 1.43831 33.7694 55.3152
CA 34.1039 -13.5918 47.8372
CA 20.0165 -30.1786 71.4468
CA 43.7102 -4.55776 66.8845
CA 15.4915 -11.0758 30.713
CA 11.0928 -2.1457 74.9949
CA 3.51835 40.9207 53.9068
CA 16.2458 -15.6004 53.1687
CA -5.30392 -24.4502 74.1098
CA 8.84938 12.6728 28.7421
CA 25.0834 -11.4485 59.8815
CA -0.582771 12.8021 86.2853
CA 1.90016 11.5341 44.1909
CA 27.5704 -13.4696 57.1078
CA 15.8647 -16.4949 34.3843
CA 19.104 0.422789 46.487
CA 17.5691 -4.08002 54.6225
CA 21.6785 -5.64377 64.8628
CA 6.65798 7.54437 70.5862
CA 5.248 15.1609 26.9898
CA 19.5801 8.69787 53.3184
CA 1.48109 14.0278 33.3213
CA 36.8469 -1.83788 47.3087
CA 2.5446 15.6327 18.4005
CA -19.2573 25.8814 40.0694
CA -5.46167 22.7554 37.2753
CA 0.742158 -11.3956 56.7043
CA -31.213 13.5968 51.5434
CA 2.93791 -19.7751 63.7826
CA 30.3934 -4.23052 65.4849
CA 18.42 5.48307 56.5418
CA 4.97126 8.13588 16.2064
CA -2.98427 13.6598 83.4295
CA 1.60802 -1.12095 45.1155
CA 15.5048 8.38155 62.3759
CA -34.8011 13.2876 53.9464
CA -30.2076 -12.2707 43.4619
CA 11.8424 3.24133 33.5948
CA 43.6988 -11.8291 50.4203
CA 12.8815 -12.0622 69.9693
CA 6.04723 20.3161 45.6727
CA 27.1435 -5.93577 26.8899
CA 41.6973 -10.0247 54.1597
CA -28.5973 5.3123 52.0458
CA 5.9465 3.69469 41.391
CA 8.50269 -16.8023 32.3725
CA -1.5816 35.0508 51.8464
CA -0.152141 -3.01674 45.314
CA 6.17761 -4.73009 52.4779
CA 1.86858 10.4846 33.7549
CA -23.7093 25.8024 36.7106
CA 1.75295 7.29956 41.9198
CA 16.9715 -10.7815 29.7292
CA 20.9089 -15.8347 55.8765
CA -15.6381 -17.9577 36.0079
CA 6.68753 12.3887 18.0758
CA 9.5454 -11.7231 71.573
CA 43.542 -10.1726 51.3679
CA 18.9444 3.46081 62.1813
CA 3.40558 31.6038 41.3254
CA -13.2356 -21.6236 34.0192
CA 5.8909 -13.1233 54.998
CA 38.171 -7.54191 68.7442
CA 11.5881 -20.0709 23.5453
CA 8.69 6.29882 72.5871
CA -2.33727 32.2795 38.7235
CA 10.2942 22.7029 42.9392
CA 11.4543 7.94314 37.4514
CA 13.4947 8.22421 57.8849
CA 3.44894 -11.0519 55.2001
CA 15.8599 4.69702 37.1546
CA -18.3714 14.8186 49.6171
CA 17.8723 1.06242 77.1905
CA -12.1397 -25.4595 31.1838
CA 26.1889 -3.63184 39.832
CA -33.4506 1.30458 58.2435
CA 15.9987 -4.05974 63.2469
CA 13.7862 -2.33418 56.732
CA 0.047703 -14.2251 71.2912
CA 5.50114 -1.0111 44.0733
CA 4.51855 24.8941 42.9746
CA 13.0499 4.46301 57.9177
CA -8.63498 0.310726 41.6757
CA 17.0477 9.6877 27.9247
CA 7.00908 13.4416 25.9385
CA 31.2166 1.10709 37.3858
CA 17.8864 0.821909 59.9629
CA 38.0507 -9.32671 70.5584
CA 34.9266 22.7174 54.98
CA 18.6262 -2.13785 41.9682
CA 8.30893 20.2456 44.5434
CA 0.946917 14.9729 21.4814
CA 29.2198 -17.2353 52.2843
CA 27.3207 -9.90599 51.1407
CA 1.68582 31.3663 53.6348
CA 2.35897 17.9065 39.3938
CA -7.86591 -28.2469 71.625
CA -8.16013 8.97575 38.1884
CA 18.9482 -11.8135 53.6905
CA -20.7216 -17.0456 22.9994
CA 42.0929 -13.3247 49.2202
CA 13.2881 10.1475 34.8169
CA 21.1192 -6.1442 67.5518
CA 9.33671 12.9622 48.0713
CA 3.1277 16.8908 21.2981
CA 7.67054 -12.6531 58.3582
CA 0.0863077 -6.06955 36.2124
CA 11.7823 6.27279 65.5804
CA -1.84075 13.2569 44.236
CA 0.967138 -18.4617 53.3227
CA 34.6872 -9.021 54.3285
CA 33.9974 -7.71822 43.4119
CA -4.55996 -5.88356 69.0252
CA -8.20081 10.8498 29.7157
CA -5.75099 -33.6292 32.5245
CA 4.18704 0.22424 43.5032
CA 24.1495 -8.47162 69.7203
CA 18.7159 -12.2247 56.9114
CA -21.8323 -25.5796 62.107
CA 8.6201 -2.49987 74.0049
CA 19.5316 2.0979 63.3522
CA -4.28583 26.9931 75.4657
CA 31.2524 -11.2085 69.8279
CA 4.628 29.0319 40.8685
CA -13.2254 0.994475 40.392
CA 2.36224 9.35233 36.1179
CA -9.3782 -1.76656 45.5149
CA 23.2967 -18.1758 59.5683
CA 30.6601 -13.1716 52.3889
CA 29.8107 -14.27 58.3975
CA -4.45896 9.20385 40.5354
CA 14.8366 20.6901 40.9173
CA 4.57378 18.8089 37.3328
CA 17.1983 -14.0353 53.9015
CA 34.1579 -7.71965 36.9942
CA -0.29535 6.6598 52.526
CA 12.4418 -22.346 21.0947
CA 13.5594 -20.016 29.7773
CA 0.0360729 31.8388 40.9043
CA 0.223075 -0.319107 43.8639
CA 4.20897 -17.4339 83.4067
CA 1.55629 -6.28972 47.9414
CA -5.93529 -13.6963 35.3547
CA 3.68021 10.9304 42.5131
CA 15.2465 1.05457 76.2735
CA 7.1232 13.5418 44.8933
CA 1.56113 6.25321 39.7139
CA 7.57568 -20.5648 31.1464
CA 10.0117 20.9985 40.8023
CA -23.0984 -23.9605 61.7286
CA -0.237633 -9.37368 54.7774
CA -0.910763 22.299 38.1603
CA 5.03488 -5.76348 58.656
CA 20.4623 10.2392 18.4063
CA 19.221 21.6474 33.6524
CA -8.05536 -5.80189 47.7277
CA -16.7452 13.4102 51.0213
CA 0.548155 10.3339 54.6986
CA 13.1351 -7.46818 73.8367
CA 1.64291 5.88487 43.2385
CA 41.8547 -10.9828 48.9064
CA 4.18668 6.02861 22.3734
CA 1.70498 -13.589 37.7046
CA -14.9682 -29.1055 25.9741
CA -6.52795 8.44843 39.2753
CA 15.3312 -5.09996 44.1142
CA -1.37703 4.17019 34.9952
CA -30.6428 9.95619 49.8816
CA 31.2702 0.821696 29.2898
CA -24.6968 -13.4802 22.9902
CA 11.4853 -8.54717 64.2653
CA 4.84092 33.1454 57.7975
CA -5.73539 27.584 70.8927
CA 30.0723 -7.81308 67.2624
CA 21.1554 -14.8483 59.0616
CA -23.9319 -11.9859 47.4592
CA 4.76431 9.0696 24.8265
CA -3.60776 5.12324 43.4559
CA -31.1915 -16.6654 62.7899
CA -5.60557 -11.1074 72.6943
CA 20.6445 -12.7982 55.6834
CA 11.7856 -18.7414 29.4388
CA 2.78254 18.9255 31.8307
CA 35.3283 -17.5673 50.1312
CA -1.19345 8.55582 41.592
CA -26.3882 -11.7339 65.261
CA 0.951459 8.9604 40.7634
CA 14.0954 -4.66641 66.3971
CA -3.93069 27.6133 41.8968
CA 16.0699 9.06966 36.8525
CA -1.70075 8.30404 43.3639
CA -15.7983 -22.8592 32.1649
CA 37.6351 -6.058 65.9621
CA -23.6278 -11.8251 23.9182
CA 17.5733 -6.32432 64.0531
CA -23.7781 -13.7472 24.7714
CA 12.6232 10.6734 17.4563
CA 0.649414 7.70625 43.6114
CA -5.99723 -7.32932 67.5028
CA 3.84836 19.9031 20.9343
CA -3.44022 14.4987 86.1959
CA -6.20496 15.404 83.3079
CA 2.21712 45.4953 54.5059
CA 38.551 -9.34525 57.9018
CA -10.7156 -17.2883 56.3351
CA 16.1697 -14.4555 32.2117
CA -28.6629 -13.6894 63.1192
CA -16.6394 -22.9696 35.2802
CA 14.0224 15.0042 24.8406
CA -6.25052 13.8008 84.9191
CA -35.5628 5.73132 57.8159
CA -30.4625 -8.26565 71.4208
CA -21.561 15.3331 50.933
CA 10.7444 10.9685 23.4575
CA 2.59853 1.67392 53.8613
CA 4.9335 7.19915 43.6783
CA -7.87448 -21.5008 76.791
CA 12.4462 -21.1889 28.2915
CA 14.5586 11.3045 22.0557
CA 1.54462 -10.8584 72.8584
CA 19.9794 21.3042 37.2662
CA -6.45488 -9.15758 70.5402
CA 3.91299 -12.1226 27.1384
CA 5.9882 22.1423 25.0744
CA 41.0223 -6.47213 54.8633
CA 7.77723 -10.4042 57.0565
CA 35.8531 -5.67541 45.3816
CA 17.6768 -1.69982 62.6876
CA 3.28267 -18.0354 61.2673
CA 20.1398 -0.139367 42.7903
CA 2.79536 -2.09788 46.4184
CA 5.7847 15.6381 45.8008
CA 3.22122 -13.0493 55.8377
CA 13.7127 -17.6156 30.4722
CA -3.82945 25.4244 39.5314
CA 9.07179 6.19288 37.4645
CA 3.51683 4.80902 41.8093
CA 27.9952 -6.43567 65.5571
CA 3.51779 23.6946 37.6806
CA 19.7342 -3.33034 65.8673
CA 13.7044 10.4521 38.1878
CA 4.31821 4.88378 38.758
CA 18.9923 1.79753 45.0524
CA 18.3528 -6.17464 60.3258
CA 36.2936 -9.63425 52.3375
CA -9.60466 -12.1109 72.894
CA 39.3806 -5.45653 36.0544
CA 23.0967 -1.26746 58.1669
CA 24.9687 -10.046 68.0824
CA -2.71843 8.18038 50.8384
CA 9.77411 37.8988 54.1179
CA 20.2547 -2.71616 59.2979
CA 7.16697 -7.69525 75.686
CA 4.14966 -15.4434 57.8775
CA 4.7845 13.1357 22.1511
CA 11.0271 -20.2642 31.3602
CA -6.02364 8.29455 42.5209
CA 8.34672 4.91477 42.1165
CA 0.965578 5.78405 44.9049
CA 8.34152 16.3195 43.3298
CA 12.0802 -5.76145 40.7135
CA -6.72947 25.7515 38.5161
CA -15.1001 -4.74064 81.069
CA 1.70417 32.7701 38.5041
CA 17.8342 -16.736 54.0014
CA -19.3722 -16.7097 30.7243
CA -0.791441 6.05449 35.8673
CA 16.6171 -8.02265 72.1911
