489

CA -6.95861 9.05091 31.3072
CA 23.8481 -17.9059 66.2679
CA 35.7278 2.80584 62.8101
CA 24.543 12.4678 58.1235
CA 6.90413 -19.9913 43.59
CA -25.1776 -5.23097 52.7815
CA -11.6113 -6.73394 46.8017
CA 20.5392 -9.55435 78.2219
CA 28.861 -1.34996 59.9085
CA 44.3136 -16.2437 54.5859
CA 27.2807 -33.9118 57.8527
CA -3.69061 -6.91518 36.5693
CA 24.3306 -17.345 71.4282
CA 14.2565 8.04991 12.5784
CA -5.58503 4.12275 51.5094
CA 25.854 -8.55328 27.7714
CA 22.8232 -8.88136 33.9407
CA 13.9126 -11.3368 65.648
CA 23.4422 -11.9102 59.1918
CA 32.6982 -7.53086 72.6313
CA 28.8525 -4.73232 68.519
CA 20.7419 4.03653 54.5272
CA 24.3183 -9.46174 68.297
CA 39.1135 3.95137 58.6441
CA -2.57037 -14.8804 71.4151
CA 7.23803 4.0185 52.8094
CA 25.7446 -14.3457 76.1259
CA 28.8097 2.66399 60.2621
CA 34.0182 -23.0295 47.9692
CA 21.4004 17.9772 62.5366
CA 19.1233 -12.9499 42.8885
CA 10.9916 7.586 68.2141
CA 24.6052 -5.23177 68.8837
CA 44.5429 -10.096 48.3638
CA 16.3345 -11.77 28.521
CA 22.7922 -14.7999 37.8322
CA 18.0023 5.82685 33.4461
CA 13.0189 -6.17323 42.6482
CA -7.30056 1.97926 50.4771
CA -1.4327 6.397 41.4588
CA 21.1472 -20.0388 78.6737
CA 36.6367 -4.46191 60.8559
CA 6.06012 -24.3927 73.4562
CA -4.75327 -15.2676 63.9178
CA 18.2805 -0.152526 49.9042
CA 15.0224 -21.0337 40.3443
CA 28.0705 -28.7929 44.829
CA 21.2258 -24.5937 58.5136
CA 25.1008 -9.79472 25.0506
CA 15.1224 -5.3785 72.5277
CA 5.52764 -16.5884 61.8637
CA -6.88446 8.80872 49.4453
CA -5.14657 8.00495 39.2383
CA 22.0473 -29.8577 62.7259
CA 4.90876 -8.92206 32.2846
CA 11.5586 9.22855 36.6416
CA 8.68429 -17.044 65.4392
CA 22.9512 -4.30078 27.1929
CA 34.1341 -1.54745 63.6651
CA 9.30044 -11.3452 68.2603
CA 35.193 -5.7618 61.4162
CA 17.2002 -24.208 62.7046
CA 25.6561 15.0074 60.5441
CA 15.5444 16.9663 16.5921
CA -0.793799 -23.4593 76.3645
CA 27.15 -2.27985 56.6343
CA 29.2549 -27 45.5164
CA 20.4585 -8.857 32.7646
CA 32.495 -2.28592 30.0533
CA 21.7123 -16.0098 59.382
CA 12.1671 -15.059 66.2038
CA -0.346899 -19.0157 47.6231
CA 28.6801 10.7051 43.0813
CA 6.40374 3.15179 49.6356
CA -4.46163 -21.7228 63.3174
CA -20.9721 -7.93148 53.9681
CA 18.7355 -21.1627 65.4127
CA 50.0955 -18.0201 64.7836
CA 22.4593 -9.40602 29.7746
CA 31.0294 2.58968 60.2445
CA 25.3607 3.11554 54.8945
CA -0.566991 -17.1202 69.5796
CA 21.8287 -2.25135 80.3838
CA -3.22143 -16.4911 42.1003
CA 31.4271 -5.39102 69.9678
CA 18.4191 -27.406 58.9996
CA -3.14477 8.5024 40.0895
CA 40.633 -15.51 49.4895
CA 34.7593 -1.45765 66.6494
CA 17.0451 -5.7677 55.5683
CA -6.28141 -8.12624 58.1265
CA 3.61505 -20.7955 45.8069
CA 5.55213 -25.4277 67.7213
CA -21.2194 -2.83262 44.5897
CA 14.1778 -14.47 61.9079
CA 4.84531 -25.7938 75.8085
CA 8.01276 -15.2642 62.0028
CA 10.3082 -6.11766 68.0533
CA 11.5786 -19.145 37.4091
CA 37.2526 5.22701 59.4276
CA 21.039 16.4069 16.7368
CA 6.23458 -15.6224 42.6484
CA 29.3175 -18.4838 49.8829
CA 34.8754 -11.6806 49.7798
CA 41.9048 -20.8311 61.4228
CA 11.4028 -16.618 62.7015
CA 24.6056 -23.5427 51.8335
CA 29.2472 -7.62575 69.262
CA 31.6603 -3.6825 62.1869
CA 24.3983 -1.95466 30.7404
CA 37.2667 -28.854 61.5503
CA 12.2258 -22.0929 55.3003
CA 25.0202 -32.0681 56.9159
CA 16.2562 -14.9937 64.9791
CA -11.8252 -8.52414 45.0028
CA 25.7214 -5.84102 50.0525
CA 36.1052 -15.11 51.6854
CA 14.1289 12.9017 62.0123
CA 9.53007 -20.0085 41.937
CA 32.2979 -9.30382 51.4595
CA 30.0014 -13.3657 48.1627
CA 22.7365 2.60375 50.6043
CA 27.9886 -7.75862 28.3456
CA 43.3776 -17.569 48.1195
CA -3.66917 1.32689 40.8144
CA 36.3318 -25.068 62.4222
CA 44.5568 -19.4664 48.5341
CA 10.2448 -7.52805 33.6817
CA 1.83014 -6.71863 60.0662
CA 40.4513 4.44859 65.4041
CA 3.04888 -9.71199 34.059
CA 43.6139 -18.1927 69.5243
CA 47.1736 -24.2794 54.5322
CA 23.6413 -19.978 72.8652
CA 21.9581 -12.1984 76.2783
CA 12.1523 -8.24026 34.2626
CA 16.8492 -9.54253 69.0377
CA 16.4168 16.0669 15.2063
CA 3.86186 -23.0243 49.7367
CA 34.8324 -20.4725 48.0474
CA -6.69631 2.9885 34.6514
CA 19.8681 -4.98049 76.2343
CA 45.7455 -17.9613 65.7641
CA 18.2067 -17.7048 73.7693
CA 26.1181 -19.9621 61.925
CA 15.1641 9.02723 34.0442
CA 41.5539 -17.8914 51.4936
CA 5.35334 1.23023 49.0055
CA 1.15297 -21.658 48.1893
CA 17.8132 6.29381 59.1162
CA 8.09313 -12.0025 60.0568
CA 30.0165 -8.63763 67.3032
CA 14.9069 -24.9917 61.7635
CA 14.5315 -0.679349 45.6579
CA 1.59929 -13.4346 62.841
CA 13.414 4.20583 9.48455
CA 13.3558 6.21192 64.8951
CA 25.2068 -25.305 52.884
CA 26.4774 -16.7797 68.9841
CA -3.68904 -7.94508 58.8171
CA -23.0059 6.09516 43.8222
CA -15.5876 -5.45603 46.4239
CA 42.2136 -22.8508 61.6643
CA 9.27025 4.68499 49.0423
CA 24.5923 -25.0501 59.9174
CA -6.31381 -10.274 55.4283
CA 36.3575 -18.3859 49.7172
CA 22.1892 -14.2265 43.2775
CA 9.62343 -19.2447 64.7501
CA 22.1417 7.44436 61.6771
CA 6.29065 -14.2467 44.983
CA 15.2569 -7.3082 36.2925
CA 10.6757 -11.2016 52.8342
CA 15.1316 11.9531 26.2324
CA 6.54752 -2.90605 59.5817
CA -4.03975 -17.9576 46.6169
CA 16.578 18.3378 40.4831
CA 10.1617 -4.4715 59.2105
CA 17.2318 11.1688 12.7909
CA 20.0776 15.8847 62.0953
CA -23.6093 4.3763 46.6969
CA 4.01801 -22.3265 67.7584
CA 32.5689 -8.70596 30.2893
CA 42.4024 -21.68 54.4218
CA -5.98314 -21.8163 44.8069
CA 21.8472 10.6143 38.6671
CA 16.4104 11.6873 9.14912
CA 22.876 -20.271 53.5796
CA 48.1839 -19.3509 54.6299
CA 15.655 20.6032 16.8653
CA 5.50256 -17.5367 65.4174
CA 10.244 -28.565 62.4911
CA 16.1857 3.353 38.4553
CA 21.2089 -23.7704 50.049
CA 10.6767 -13.3509 47.3034
CA 25.3533 -9.57889 30.7196
CA 36.7079 -10.0643 38.4395
CA 15.9211 -0.106901 64.8418
CA 9.93329 12.5162 32.1482
CA 15.8047 8.89791 18.4711
CA 26.5066 9.58457 60.5
CA 24.0575 6.30716 58.2976
CA -8.9506 9.19378 32.644
CA 9.75758 -23.553 70.2311
CA 31.3023 -6.09425 52.1483
CA 37.3473 -19.8268 45.7541
CA 34.1163 -7.71181 36.9335
CA 15.5072 -20.0355 59.011
CA 2.8871 -22.4119 75.9732
CA 23.3976 -4.14538 38.3926
CA 9.33746 12.2771 18.6565
CA -11.5054 -4.39 45.9181
CA 16.3919 -10.3009 46.2993
CA 2.74908 -3.42161 37.5194
CA 5.48548 4.76099 65.9117
CA 21.1683 8.17902 37.5884
CA -3.4018 -19.3539 65.2273
CA 22.2382 15.0062 59.7739
CA 24.3468 -33.6357 55.2924
CA 4.28931 -14.5705 44.1084
CA 1.13208 0.499297 46.984
CA 7.35165 -16.1354 64.4432
CA 20.6694 0.679376 51.4255
CA 15.339 -11.1085 51.4252
CA 6.78097 1.91349 52.794
CA 32.8957 5.33459 61.2121
CA 7.50126 2.33848 60.4121
CA 14.7172 5.94667 59.7856
CA 33.3912 -1.99109 70.785
CA 22.9931 7.20198 64.2567
CA 13.3384 -11.0724 67.339
CA 25.1921 -17.248 57.3891
CA 20.575 7.70854 41.6798
CA 8.12577 -22.5179 73.9305
CA 23.7908 -22.3557 47.0778
CA -19.6649 -6.00012 49.8859
CA 17.3154 -12.3337 46.8149
CA 31.6641 -22.7271 55.7436
CA 19.7887 -10.9584 76.5229
CA 15.0077 5.33772 49.4658
CA -9.71166 0.582204 53.1657
CA 15.4539 -15.3978 38.5984
CA 26.9319 -26.8545 51.4942
CA 11.2467 -10.0167 39.5266
CA 15.5232 1.18239 62.2843
CA 47.281 -22.5387 49.7893
CA 9.09904 -13.5677 39.5176
CA 9.0343 5.87427 59.4772
CA 30.0333 -23.1693 56.4703
CA 16.286 -4.50564 24.9166
CA -9.10321 7.52283 39.2514
CA 17.2988 -1.75988 20.8259
CA 33.7419 -4.44668 28.0953
CA 17.0882 -4.47689 77.847
CA 33.1907 11.7443 68.4703
CA 23.6684 -26.3995 58.4346
CA 15.8474 8.97268 53.2098
CA 23.0602 -21.2817 71.2224
CA -7.18189 6.56296 35.3925
CA 32.2175 -4.18699 73.4772
CA 33.4426 0.00411028 66.0937
CA -22.7988 -9.01775 47.4813
CA 8.94756 4.92176 64.1727
CA 35.4737 -7.54244 54.5534
CA 11.3157 4.06958 63.6368
CA 39.6939 -6.38672 63.585
CA -0.2315 -16.9088 62.4711
CA 25.5277 -29.8951 55.456
CA -5.64002 -19.145 40.7238
CA 13.8087 -3.2687 60.1455
CA 35.7015 -9.37818 54.5372
CA 12.2398 2.80014 51.0313
CA 28.1825 -9.08555 53.2297
CA 20.5373 3.18541 49.2255
CA 34.0295 -6.49591 34.2617
CA 41.1885 -20.4197 63.7207
CA 15.5789 14.9236 46.8801
CA -5.79013 -24.0162 44.0848
CA 13.1744 -20.6238 53.6038
CA 8.65081 10.0362 24.1482
CA 29.7926 -11.3134 53.7034
CA 26.1209 -8.03932 25.3006
CA 18.2402 12.0454 10.1105
CA 26.9383 -6.57199 48.8057
CA -1.62627 -8.08449 58.3807
CA 22.1332 9.20435 35.3882
CA 30.8473 -23.1321 42.4121
CA 19.5059 5.52847 39.3652
CA 42.6674 -16.8373 66.8158
CA 35.2254 -28.1886 60.5765
CA -15.2432 -6.64648 40.3727
CA 10.818 -15.1856 59.8902
CA 32.2392 -10.8965 54.2896
CA 11.9372 15.431 49.1461
CA 23.3734 -31.3801 54.4272
CA 31.3137 -0.695688 67.6454
CA 27.3264 11.344 65.0417
CA 41.705 -16.8822 53.6562
CA -21.5904 1.17047 42.4962
CA 49.4435 -18.7589 60.3188
CA 37.1026 -28.3913 56.7962
CA 15.8413 -5.04995 27.5083
CA 23.5052 -29.3261 55.6879
CA 17.8279 -11.8955 67.7315
CA 12.78 -12.6196 68.7053
CA 22.577 -31.4104 58.4051
CA 38.5647 -15.3995 54.0658
CA 16.1747 13.7909 9.14624
CA 11.4188 13.5482 31.1171
CA 13.7804 -6.17666 68.8826
CA 9.40758 10.881 34.4957
CA -15.0653 -2.53412 43.1801
CA 18.8149 -10.3607 72.6226
CA 12.3067 -20.7295 40.8859
CA 16.8191 -7.03111 37.3191
CA -23.0122 -3.23954 48.4352
CA 13.3292 -7.7328 39.4156
CA 28.9659 4.58672 64.0003
CA -3.8086 -14.1418 65.2999
CA -6.9896 -0.487227 49.2957
CA 22.6709 11.4898 36.1896
CA 39.8612 -19.2728 48.6015
CA 45.8608 -19.4291 64.0809
CA 42.6875 -21.7841 52.5076
CA 21.8048 -25.4994 55.0716
CA 2.78233 -23.386 65.8971
CA 8.12393 14.6946 30.7607
CA 3.7013 -23.9919 72.0792
CA 5.78861 -10.8495 47.4406
CA 37.821 7.42943 66.0207
CA 10.2667 -1.5553 59.5392
CA 32.9908 -9.56285 71.0754
CA 18.6243 -17.2062 55.1441
CA 32.7335 -6.29716 21.9239
CA 19.9165 21.8576 40.0769
CA 31.3434 -10.9131 31.6982
CA 20.6266 -9.86486 29.4374
CA 32.5737 -5.68807 62.1734
CA -5.95479 15.2805 28.2132
CA 11.8444 11.396 51.5882
CA 13.2459 13.0708 18.2946
CA 20.4815 -25.7285 63.4796
CA 13.9874 10.3703 23.0455
CA 18.1357 -9.17185 50.2859
CA 28.0614 -28.7922 64.1623
CA 30.0726 14.3384 66.6052
CA 19.3141 -6.33993 35.8783
CA 29.6915 -0.491035 57.0965
CA 18.0277 -19.3693 58.0438
CA 15.0087 -6.94591 26.8197
CA 14.6071 -4.21321 58.4239
CA 19.8364 -15.4397 51.8375
CA 24.7998 -27.5628 46.9641
CA 20.2827 -17.8625 75.0212
CA 33.7167 -20.7878 56.029
CA 17.362 -16.1724 49.5611
CA 42.6117 -17.4257 57.6919
CA -3.58565 -21.4618 39.6487
CA 6.86172 -1.44614 60.7634
CA 13.2522 -6.25528 50.4422
CA 40.3544 -4.51631 27.91
CA 36.983 0.414256 70.1386
CA 36.9183 -22.4524 67.0802
CA 27.2735 -11.2545 30.1614
CA -2.3142 4.45327 40.5935
CA 4.24034 -27.2018 71.6736
CA 23.6142 -17.7762 52.3621
CA 4.2189 -5.2408 41.1677
CA 41.9166 -12.5173 49.1817
CA -3.21035 3.30387 47.132
CA 0.268886 -11.5433 67.0446
CA -19.7354 -4.7116 44.7962
CA 10.3106 -16.0795 58.3815
CA -2.32507 1.25262 42.7698
CA -22.8306 -5.00221 42.4859
CA -6.61357 -26.6498 45.4384
CA 23.5283 -29.5938 52.4539
CA 19.5538 -11.8867 29.6614
CA 34.7104 -12.5165 51.7855
CA 37.7484 -22.9577 61.0475
CA 14.3126 -21.6544 38.496
CA 38.1491 6.66861 60.283
CA 23.762 12.0772 18.4097
CA 8.89271 -12.3262 56.5378
CA 39.0572 -16.4838 51.7083
CA 1.56052 -6.19705 53.2937
CA -1.2213 -8.99305 36.0773
CA 48.1707 -21.1727 64.0632
CA 9.83993 -15.0806 42.2598
CA 35.598 -7.27868 24.455
CA 22.3797 4.8622 64.2597
CA 4.63375 -22.8723 69.8572
CA 16.4879 19.7618 20.2786
CA 39.4538 -7.17788 24.8968
CA 19.7691 -11.6912 36.5528
CA 15.5785 -22.2269 59.9381
CA 27.9004 -5.03397 66.6776
CA 21.9752 2.75538 37.746
CA 10.5153 12.3674 24.864
CA 12.5398 -26.0146 62.5667
CA 26.2942 -11.2961 52.8012
CA 20.9524 -15.0284 37.6382
CA 26.1412 7.53229 66.0888
CA 22.7862 5.85983 66.0717
CA 3.56832 -19.8946 65.7011
CA 26.2684 -9.37538 56.8966
CA -3.23611 0.37335 44.5489
CA 5.50555 -22.4524 72.4091
CA 8.45618 -20.8184 48.7167
CA 33.2619 -30.0078 50.2931
CA 18.2303 -17.1845 47.9579
CA 27.627 -10.4371 51.8584
CA 23.3275 -12.7147 29.6826
CA 18.8434 8.44206 41.1885
CA 41.6351 -4.60727 31.7901
CA 17.5693 -7.09217 69.7086
CA 35.2402 -31.5873 61.6913
CA 26.2736 -31.5637 58.7344
CA 33.0765 -3.00819 66.7345
CA 28.7588 -12.9909 35.0706
CA 14.8507 -7.00072 56.627
CA 15.4457 -19.4959 41.2137
CA 11.3233 -5.9951 37.5025
CA 20.662 -21.8741 60.5748
CA 12.1642 -25.2791 52.273
CA 25.9421 -14.0189 65.4284
CA 2.74692 -5.83787 35.7559
CA 39.2789 -15.033 56.5027
CA 4.62373 -8.36943 37.1191
CA 34.9906 -16.3497 43.5636
CA 5.64683 -21.9402 47.0265
CA 18.9554 -6.54145 31.5537
CA 16.7064 -12.0726 66.104
CA 30.8495 5.43989 56.0531
CA 27.3471 6.28881 59.7476
CA 29.4446 -21.566 58.6864
CA 20.4513 -24.9368 44.3967
CA -16.0493 -6.41611 53.8225
CA 21.68 -1.21236 34.4873
CA 7.27809 14.0596 25.4055
CA 27.3495 -3.57704 27.1825
CA 29.6495 -16.4768 68.3713
CA -3.99992 -0.966908 43.1474
CA 23.1141 -28.0808 63.2611
CA 42.8015 -15.788 60.9899
CA -4.93989 -15.0418 59.1193
CA 24.284 8.57651 42.1508
CA 46.3819 -16.6666 64.049
CA 2.17416 -5.25442 51.0271
CA 17.6262 21.114 18.4946
CA 35.6765 6.6601 59.6117
CA -4.13685 -23.5123 62.8682
CA 15.61 -0.901648 60.3307
CA 14.8756 10.4222 10.0551
CA -1.63661 -12.4391 59.6325
CA 13.2975 -1.54671 55.0701
CA 21.1835 -17.016 36.9652
CA -5.65109 10.2615 40.6025
CA 23.1954 -17.7164 47.0557
CA 29.7958 4.98571 61.1575
CA 11.2392 3.88205 68.2156
CA 12.0012 -10.7302 51.1863
CA 2.97437 -10.5374 36.0793
CA 28.0894 8.97151 64.5349
CA 19.9058 -20.0264 52.8661
CA 14.4568 6.24105 36.9412
CA -4.92605 -13.6393 62.6772
CA 2.65478 5.4186 66.1272
CA 19.5404 9.7646 10.5509
CA 8.90798 -18.2349 35.9612
CA 18.8973 1.81196 51.1744
CA -10.0845 -0.479256 46.6625
CA -0.0482928 -7.18882 37.6448
CA -3.94618 -17.4998 51.3098
CA 25.2777 -16.5815 74.7721
CA 31.3922 -12.48 49.1173
CA 15.7849 -14.651 51.1792
CA 20.0932 10.0959 40.8983
CA -0.0455892 -15.529 65.0023
CA 17.7425 -16.7836 42.8025
CA 16.4804 7.09629 41.9103
CA 27.0855 -5.17494 52.3717
CA 24.2779 -19.2983 51.6018
CA 26.2593 -27.8385 59.5239
CA 13.8309 -17.2924 75.3405
CA 2.14793 -2.34297 50.7948
CA 12.1898 7.5287 66.0191
CA 43.3126 -19.935 50.9434
CA 28.1565 -9.17199 56.568
