489

CA 14.956 2.32082 63.7338
CA 12.2095 -23.355 66.5948
CA 7.7108 -18.4754 70.0812
CA -8.81753 4.46224 39.9465
CA 3.07143 -17.071 52.3406
CA 18.0513 1.14255 81.6216
CA 1.63835 -7.11278 58.195
CA 14.7215 -1.05661 12.4452
CA 32.8317 -20.9966 48.7029
CA 44.3136 -16.2437 54.5859
CA 27.2807 -33.9118 57.8527
CA 5.69736 -15.0756 77.9132
CA 24.3306 -17.345 71.4282
CA -19.5089 -4.90655 42.0618
CA -5.58503 4.12275 51.5094
CA -8.38107 -26.8746 44.6869
CA 16.5702 -0.286674 16.6421
CA 47.0843 -26.1162 57.3688
CA 12.5306 11.0462 30.3014
CA 3.6385 -21.5592 74.8767
CA 12.7058 1.08854 61.6053
CA 18.1765 -3.68117 60.1491
CA 16.3562 -13.764 71.1175
CA -10.2234 6.26116 44.0163
CA 16.9328 -11.5515 63.5745
CA 3.25167 -10.0044 49.3742
CA 17.5974 8.18645 49.0287
CA 33.5678 -0.366828 65.9374
CA 34.0182 -23.0295 47.9692
CA 21.4004 17.9772 62.5366
CA 26.8743 5.54054 67.3155
CA 19.903 -6.38284 54.9561
CA 15.9315 -0.391212 75.3758
CA 24.1032 -10.0839 60.0207
CA 12.6375 3.72008 36.7811
CA 0.530922 -17.2942 37.7757
CA 29.2315 -8.18527 56.5928
CA 13.0189 -6.17323 42.6482
CA -0.384075 3.20691 40.8957
CA 15.8445 10.8117 19.1553
CA 1.95454 -18.1713 73.1712
CA 12.4319 -23.8832 63.556
CA 6.06012 -24.3927 73.4562
CA 15.1609 -5.15618 46.8437
CA 23.0175 -3.42278 53.4928
CA 12.6168 -4.05314 36.5521
CA 43.7017 -17.5172 63.3557
CA -11.2242 -1.19046 55.1254
CA 25.3145 -15.2701 42.6653
CA 8.92143 -24.6316 52.8116
CA 20.7151 5.03972 56.1456
CA 24.1697 -21.6428 44.6281
CA 22.9155 -18.5279 69.398
CA 22.0473 -29.8577 62.7259
CA 18.6307 0.12588 36.3877
CA 18.1313 -1.97019 38.8152
CA 8.68429 -17.044 65.4392
CA 9.85374 3.01851 50.2235
CA 9.97074 -5.37738 49.8318
CA 5.52931 3.57334 50.8773
CA 14.4401 -16.6073 56.2184
CA 13.6905 -6.29421 29.1736
CA 36.0718 4.35106 60.9086
CA -17.9661 -6.07185 43.6462
CA 37.8198 2.22434 67.0186
CA 27.15 -2.27985 56.6343
CA 17.3415 -21.7297 79.7826
CA 33.6441 -6.6903 29.6854
CA 23.2093 -24.8839 60.7971
CA 28.2221 -1.41278 72.1745
CA 12.1671 -15.059 66.2038
CA 16.7844 -19.4112 75.8274
CA 28.6801 10.7051 43.0813
CA 12.3155 -13.0187 63.5517
CA -1.57247 2.54969 66.9702
CA -20.9721 -7.93148 53.9681
CA 46.9299 -19.0845 64.7123
CA 8.38888 -23.9654 54.4274
CA -12.7152 0.415333 54.351
CA 35.7701 -6.78803 33.4343
CA 14.2722 -28.662 61.2575
CA 30.4956 15.0608 39.1386
CA 28.2969 -24.2885 50.6061
CA -16.512 -0.479709 53.0109
CA 36.9584 -20.2286 43.2919
CA 22.1193 -10.5285 72.9725
CA -1.56018 -17.8377 66.0193
CA 29.2609 -1.25785 68.4304
CA 41.6826 -11.8745 65.1095
CA -7.70998 4.70454 43.443
CA -6.28141 -8.12624 58.1265
CA 28.8033 -0.0911793 65.8103
CA 22.6542 -23.132 61.3196
CA 16.9101 9.22292 50.4543
CA 6.10561 1.8685 47.2954
CA 7.71317 3.74307 54.7924
CA 13.6387 -16.7316 61.5192
CA 18.8457 11.8409 39.2707
CA 13.9729 -20.4954 78.4264
CA 37.2526 5.22701 59.4276
CA -6.86708 4.6104 35.7451
CA 25.2159 3.55128 69.2319
CA 19.9711 -4.51648 50.8227
CA 7.68381 -7.68239 43.8929
CA 27.4394 -14.8861 29.2451
CA 11.4028 -16.618 62.7015
CA 14.7017 -26.955 63.1205
CA 10.1145 -11.6366 33.6059
CA 37.1443 -7.33063 38.3922
CA 17.5814 -2.47462 73.812
CA 37.2667 -28.854 61.5503
CA 39.072 -8.99783 64.6746
CA -0.424034 -15.9707 62.1154
CA 27.0297 -2.48185 74.2667
CA 23.4426 2.33561 55.2458
CA 12.8046 -6.07077 57.6261
CA -11.0966 -3.02084 37.5488
CA 14.1289 12.9017 62.0123
CA 45.769 -24.6468 63.5364
CA 32.2979 -9.30382 51.4595
CA 27.4822 -17.2402 72.2461
CA 22.3361 6.71061 57.6297
CA -1.85339 12.1168 41.6227
CA 22.3343 -6.4965 23.1812
CA -3.66917 1.32689 40.8144
CA 11.9009 -8.8513 55.6497
CA 23.7567 -14.6722 76.2316
CA 10.2448 -7.52805 33.6817
CA 9.90988 -24.4517 46.6056
CA 8.9681 2.78199 15.9754
CA 6.01986 -13.204 59.1543
CA 16.8127 -16.7028 64.6628
CA 25.7158 -4.10934 52.5677
CA 43.8279 -23.2592 60.6249
CA 2.92577 -23.7869 73.1548
CA 1.9105 -14.9564 59.3722
CA -15.3792 -6.61796 43.8357
CA 34.7813 -10.4955 69.6846
CA 17.7059 -19.889 68.6127
CA 34.8324 -20.4725 48.0474
CA 48.3508 -17.7025 50.2955
CA 23.0988 0.624136 61.7018
CA 18.6411 3.76952 51.1989
CA 11.707 -16.4122 40.0159
CA 3.9054 -4.10274 49.8004
CA 15.1641 9.02723 34.0442
CA 23.1218 -10.3142 52.9208
CA -9.05298 -14.5023 38.1718
CA -0.457571 -18.786 38.7205
CA 10.5855 -5.72863 40.5146
CA 32.1525 -22.5686 46.6059
CA 22.7992 -17.6304 49.1763
CA 23.3564 -8.58705 49.0745
CA 41.0984 3.27174 63.5978
CA 24.2711 10.9298 41.6445
CA 23.2117 -16.4147 64.2189
CA 13.3558 6.21192 64.8951
CA 10.4908 -11.0731 56.6959
CA -4.0899 -19.688 73.6548
CA -3.68904 -7.94508 58.8171
CA 20.1074 8.31373 35.2479
CA 29.6939 -9.48991 57.9013
CA 4.31488 -9.82117 57.0507
CA 22.2967 -20.8546 49.1543
CA 9.75658 -7.67897 43.9684
CA 18.5957 -15.1039 35.8479
CA 0.0786992 -21.7644 65.8587
CA 16.8476 -3.72886 71.6303
CA 33.0452 -24.79 44.6331
CA 33.808 -8.85733 64.6828
CA 13.8304 8.62877 58.6299
CA -12.9305 -1.30213 38.8931
CA 15.2667 -3.62584 36.1825
CA 8.96297 -16.0037 58.4233
CA 15.28 7.93976 27.9418
CA -4.03975 -17.9576 46.6169
CA 3.30593 -17.6767 58.5937
CA 24.8517 -30.5909 56.1216
CA 46.3279 -21.0759 60.56
CA 10.743 -4.90192 42.631
CA -23.6093 4.3763 46.6969
CA 24.2388 -10.4999 50.2929
CA 35.869 -20.1277 46.5728
CA 24.1793 -18.2246 76.8752
CA -5.98314 -21.8163 44.8069
CA 6.15355 -14.5813 34.9687
CA 16.4104 11.6873 9.14912
CA 44.9273 -25.6544 47.3223
CA 31.4074 3.70776 61.5558
CA 15.655 20.6032 16.8653
CA 14.1388 2.48845 13.8435
CA 24.5243 -14.431 34.7829
CA 17.3548 15.573 61.3515
CA 25.0366 -11.2979 28.3134
CA 22.9493 -4.46137 66.6302
CA 17.7463 22.6564 17.5462
CA 8.96127 12.2782 27.8518
CA 27.8215 -15.8932 58.409
CA 37.7196 -0.737567 73.6396
CA 23.4263 -25.7241 53.1949
CA 28.245 11.5138 69.3737
CA 27.8693 -9.35814 50.9424
CA 18.331 -20.8623 56.8608
CA 41.4709 -26.8805 59.2479
CA -11.481 -1.49033 57.4508
CA 12.8947 6.18097 13.739
CA 42.2817 -24.1777 61.1774
CA 26.4087 -7.65359 29.0402
CA 8.22646 -20.5598 63.0053
CA 28.8258 -7.12641 49.533
CA 9.33746 12.2771 18.6565
CA 12.3563 -8.35133 62.1633
CA -2.94955 0.0428303 38.8023
CA 21.6999 -29.0551 53.133
CA -19.8826 -4.69762 56.879
CA 28.3101 11.2625 71.5639
CA 19.7957 -13.3875 66.1192
CA 3.53602 2.05911 65.4652
CA 41.0178 -18.5149 55.4023
CA 38.8095 -8.85755 62.1514
CA 1.13208 0.499297 46.984
CA 29.7761 -34.9015 54.2736
CA 21.0868 -8.77852 32.649
CA 19.6945 -3.97253 27.0551
CA 7.60618 0.51075 65.1751
CA 38.7059 10.8791 62.7134
CA 39.9258 -16.541 64.5417
CA 14.7172 5.94667 59.7856
CA 18.4881 3.17172 76.3145
CA 22.8434 13.0888 41.6089
CA 14.1714 -1.20557 78.7521
CA 37.2378 -8.15388 35.7106
CA 29.6061 -12.0198 59.4088
CA 18.8161 2.69485 37.419
CA 7.79946 4.76536 69.578
CA -19.6649 -6.00012 49.8859
CA 29.8409 -11.5156 50.2147
CA 15.7744 -2.39072 64.1552
CA 25.563 3.54999 59.6827
CA 16.597 3.14901 80.0241
CA 21.9869 0.71953 60.2867
CA 29.8419 -11.3224 28.3463
CA 26.9319 -26.8545 51.4942
CA 48.1038 -11.2578 65.7986
CA 15.5232 1.18239 62.2843
CA 5.76576 -15.1598 54.595
CA 20.1338 -23.6235 53.0696
CA 3.51636 -18.0122 65.4367
CA 33.266 -22.5945 44.0794
CA 15.2922 16.9904 8.45181
CA 24.8544 -25.1495 63.3363
CA 26.0427 -9.59501 67.2903
CA 33.7419 -4.44668 28.0953
CA 26.2822 -5.80956 24.637
CA 34.5148 -9.0754 71.6325
CA 28.8834 -12.3321 62.3858
CA 12.1752 -4.65958 44.0751
CA 22.5404 -6.71254 48.8482
CA -7.18189 6.56296 35.3925
CA 22.1363 -10.421 31.9298
CA 27.8522 -12.0263 32.363
CA 47.4838 -16.7461 54.6313
CA 8.94756 4.92176 64.1727
CA 6.83841 -27.0644 69.0327
CA 31.9994 -12.8908 54.1743
CA 42.7788 6.62468 66.2056
CA 4.22248 -16.7527 74.572
CA 25.1355 19.852 65.4397
CA 3.39229 -17.9016 67.7417
CA 33.7585 -1.92178 58.7646
CA -5.01724 -12.1151 60.3127
CA 15.6156 0.0951719 63.9735
CA 21.7152 -2.1566 50.1827
CA -1.22361 -21.9524 68.3411
CA 5.02948 -10.3375 36.1951
CA 43.4235 6.00027 62.3735
CA 6.23823 -8.10553 36.6528
CA 11.6292 -9.39116 68.4788
CA 13.1744 -20.6238 53.6038
CA 12.7648 -21.8714 59.8743
CA 25.9064 -25.4976 53.1464
CA 26.1209 -8.03932 25.3006
CA 10.1318 -9.90877 41.2982
CA 27.0481 2.88587 67.952
CA 29.7583 -13.9256 58.4309
CA 36.5191 -1.32963 71.2369
CA -10.9514 -4.02162 53.3823
CA 46.377 -19.0239 52.7018
CA 42.6674 -16.8373 66.8158
CA 8.95897 -5.04632 38.2881
CA -15.2432 -6.64648 40.3727
CA 19.8671 -7.87868 28.3144
CA 18.5187 -16.1009 68.7866
CA 10.7736 -10.8864 54.5896
CA 46.0949 -20.4838 49.6253
CA 31.0244 -8.0981 30.1953
CA 29.3926 1.4835 68.4066
CA 46.0432 -20.7638 62.3926
CA -0.221866 10.116 43.3609
CA 14.0918 8.8237 68.1877
CA 48.4464 -28.71 60.1437
CA 42.2562 -14.2564 67.3816
CA 46.0928 -18.3666 61.1776
CA 26.6717 -5.30835 53.5526
CA 25.5137 11.4738 71.8107
CA 14.84 -14.365 68.8128
CA 6.86867 -15.5041 41.7809
CA 26.8032 -30.098 58.7554
CA 42.0063 -19.5784 52.71
CA -21.9651 4.40841 51.5427
CA 18.8863 -3.5087 31.3597
CA 20.1718 -6.14891 69.2664
CA -1.16489 -19.9898 73.0499
CA 30.9839 -4.10932 72.2256
CA 3.60825 -2.70741 51.5813
CA -10.8109 2.65149 33.8852
CA -1.00588 5.34665 44.644
CA 0.963494 -19.2712 75.9976
CA 11.388 -10.4194 31.2866
CA -6.9896 -0.487227 49.2957
CA 19.0807 -19.3988 67.2709
CA 6.08564 -11.2267 57.1529
CA 8.31875 -5.03055 64.4754
CA 19.4865 -18.7166 76.9745
CA 24.8721 -8.63927 50.2136
CA 30.4584 13.3153 40.1528
CA 15.5522 -6.74503 62.0859
CA -13.8969 -0.272984 36.9355
CA 13.6339 -19.0255 58.9332
CA 25.0649 -19.9974 74.687
CA 13.2637 -23.0782 61.647
CA 46.0593 6.41744 63.0349
CA 35.6532 -11.5447 62.7541
CA 32.7335 -6.29716 21.9239
CA 19.9165 21.8576 40.0769
CA -2.98213 -16.382 40.7538
CA 37.3016 -21.2564 45.4868
CA 32.5737 -5.68807 62.1734
CA 30.5584 11.8733 44.3987
CA 25.4981 -2.64346 23.7138
CA 13.2459 13.0708 18.2946
CA -23.3779 2.10217 51.2204
CA 13.9874 10.3703 23.0455
CA 29.6882 -3.00725 22.27
CA -12.6391 -4.97856 38.5873
CA 30.0726 14.3384 66.6052
CA 19.3141 -6.33993 35.8783
CA 30.1204 16.399 37.7885
CA 6.29285 -20.4289 65.304
CA 26.8206 -15.0796 31.6041
CA 16.6405 -9.94305 64.4697
CA 12.5457 -28.5172 53.2526
CA 37.2903 -8.47265 24.0577
CA -5.77408 -19.1924 48.8204
CA 26.2324 -12.2964 54.3008
CA 14.312 -7.5094 66.6979
CA 11.9631 7.5903 38.3605
CA -3.58565 -21.4618 39.6487
CA 6.86172 -1.44614 60.7634
CA 8.92338 -0.0227369 49.2337
CA 12.1341 4.48317 68.0658
CA 36.983 0.414256 70.1386
CA 39.1445 -16.0079 66.6429
CA 10.9766 8.86708 70.4787
CA 27.962 8.88032 70.0562
CA -24.1724 -2.40225 50.3489
CA 26.6255 -5.24352 57.6609
CA 12.2324 -15.0814 60.081
CA 21.2515 -23.7734 44.2205
CA 21.7229 -31.0102 61.354
CA 3.95664 -14.762 36.6224
CA -19.7354 -4.7116 44.7962
CA 9.04289 13.1159 72.3198
CA 12.7623 -6.74276 32.2637
CA 32.2926 -5.61475 37.8558
CA 25.3229 -9.66793 58.4528
CA 15.7506 -5.32324 48.9763
CA -21.1656 -4.00379 55.6314
CA 17.7656 15.72 14.8326
CA -10.3769 2.48906 49.911
CA 17.7016 -20.0793 63.3169
CA 13.4458 -26.8304 61.4122
CA -0.452124 -6.02169 57.6309
CA 8.89271 -12.3262 56.5378
CA 25.0456 -14.1207 46.5298
CA 1.56052 -6.19705 53.2937
CA 35.2463 -8.83856 62.7967
CA 27.4637 -13.3108 49.0624
CA 14.8462 11.3137 15.4799
CA 35.598 -7.27868 24.455
CA 19.5299 -5.32928 32.9535
CA 30.1242 -2.24666 71.3291
CA 18.5278 3.69429 35.4054
CA 42.8808 -18.7545 65.702
CA 48.4552 -7.54187 67.4999
CA 18.4586 0.709723 64.1244
CA 8.06809 -11.1349 57.8062
CA 11.599 -7.81912 42.3534
CA -4.19875 -8.20954 54.4652
CA 27.3037 -28.695 40.5063
CA 16.32 4.79516 43.0494
CA 20.9524 -15.0284 37.6382
CA 20.155 -29.7057 59.7166
CA 6.43264 -19.183 37.2246
CA 23.7069 -5.54945 49.6653
CA -9.28314 8.46894 37.6978
CA -3.23611 0.37335 44.5489
CA 14.0221 -21.9413 57.6328
CA -4.55844 -15.438 39.3543
CA 10.6434 -23.2008 51.8917
CA 28.8392 12.4483 45.8745
CA 41.6192 -18.2519 47.674
CA -6.4646 -15.9242 48.4184
CA 18.0926 -24.7767 42.4225
CA 33.4801 -2.86529 62.015
CA 17.5693 -7.09217 69.7086
CA 12.6166 -16.1007 52.2223
CA 19.7801 -29.5115 52.5645
CA 33.0765 -3.00819 66.7345
CA 8.84849 -18.9285 56.3232
CA 23.3935 -4.94464 54.9104
CA 33.912 -6.06032 32.8441
CA 24.7355 -31.9134 53.2749
CA 35.4876 -4.048 25.1266
CA 14.2327 11.9185 64.7723
CA 25.9421 -14.0189 65.4284
CA 16.4857 6.78938 58.2165
CA 4.87447 -0.477467 51.2106
CA 40.7922 -22.0713 66.4609
CA 34.9906 -16.3497 43.5636
CA 5.64683 -21.9402 47.0265
CA 14.8454 2.35393 32.4695
CA 10.1178 -14.9846 65.9162
CA 11.8135 -18.8287 63.3308
CA 17.5744 13.2678 6.41736
CA 12.5188 -10.7242 55.6094
CA 9.94122 -27.5661 51.7207
CA 27.1608 -12.6566 57.994
CA 2.91096 -8.13203 55.3274
CA 27.3373 -11.7625 76.6682
CA 27.0906 -36.6642 58.88
CA 29.6495 -16.4768 68.3713
CA 23.1177 -2.63793 70.4693
CA 19.1391 -12.7565 39.4844
CA -17.0982 -4.98264 40.6574
CA 3.41669 -4.18759 53.1286
CA 28.846 -17.1611 70.015
CA 18.6343 -8.36452 46.3933
CA 20.4129 -14.7509 35.8607
CA 7.16082 1.65036 53.5424
CA 6.91469 0.347262 60.1738
CA -4.71717 -16.0836 45.0681
CA 13.6589 14.2149 16.6374
CA -0.0374976 4.90725 69.2676
CA 13.9267 -9.81278 64.2144
CA 10.7988 5.48858 66.9645
CA 31.1631 -25.9594 46.5277
CA -0.432226 -11.7295 37.7749
CA 11.9948 -3.927 55.8102
CA 32.1423 -2.99592 69.8475
CA -7.97162 0.027825 52.485
CA 17.6006 2.89865 60.5458
CA -17.9336 -5.04707 54.1554
CA 24.353 -3.96019 72.7641
CA 23.7295 -5.25922 58.5764
CA 20.2227 -7.41712 31.6922
CA 11.4157 4.00385 65.5123
CA -9.13287 5.11773 34.9874
CA 46.9945 7.78849 64.2172
CA 32.5154 -0.991297 69.6912
CA 7.52132 -16.8712 38.5693
CA -10.0845 -0.479256 46.6625
CA 12.693 9.0658 61.5687
CA -5.70647 2.75745 47.4711
CA 21.4967 13.147 14.4728
CA -2.33642 -5.87368 52.9299
CA 15.7849 -14.651 51.1792
CA 7.60824 0.128988 51.0783
CA 28.3572 -3.97087 57.0677
CA 11.4651 6.44692 40.7685
CA 40.6278 8.2324 57.9906
CA 15.6142 10.8148 64.1062
CA 45.338 -14.4817 63.8966
CA 17.7333 -25.9152 62.9839
CA 8.93061 4.26744 71.7079
CA 5.13721 3.25366 68.2003
CA 45.3532 -26.7213 60.5211
CA 17.0463 8.5222 13.1485
CA 11.8852 -17.0614 69.7451
