489

CA 32.6156 -27.1107 51.9198
CA 10.5772 -5.81612 43.7195
CA 15.0076 -7.28298 47.1539
CA 18.698 -19.6091 60.6511
CA 3.07143 -17.071 52.3406
CA 34.759 -12.3353 68.6071
CA 23.2147 -12.5144 77.3238
CA 24.2669 -7.70594 65.4623
CA 24.8962 6.36057 66.8785
CA 42.4929 -1.08071 42.9814
CA 18.6521 -5.99678 64.6607
CA 27.4427 -13.7973 81.6885
CA 13.6292 -0.253744 74.5879
CA 24.3229 10.7377 63.7692
CA 20.7229 -6.01057 69.413
CA -8.38107 -26.8746 44.6869
CA 25.7965 -20.7864 72.6781
CA 5.3706 -15.5675 68.4607
CA 14.5372 -11.6894 71.559
CA 3.6385 -21.5592 74.8767
CA 3.40049 -20.9373 61.8993
CA -11.3479 -3.68166 56.6631
CA 42.8394 -15.7414 49.6503
CA 14.3375 -1.52247 52.9479
CA 29.5001 8.08401 46.9617
CA -3.97977 1.12645 71.839
CA 16.7504 -11.3152 41.6876
CA 10.7135 -3.31647 52.1853
CA 48.5671 1.58962 37.0699
CA 28.3071 5.20893 65.3187
CA -13.8207 8.51476 31.5055
CA 30.8294 -10.7948 72.1409
CA 31.5558 -24.1244 74.2964
CA 28.3038 -23.6608 68.8348
CA 27.6557 -23.6824 79.2095
CA 16.44 15.0313 33.6775
CA 35.6259 5.28833 67.1848
CA 26.7698 4.09834 55.5598
CA -26.6949 -4.55635 41.2967
CA 30.5969 -26.6238 43.657
CA 27.6508 -13.2222 73.1678
CA 20.9132 -22.6572 59.7885
CA 16.3139 -5.33615 67.0929
CA 6.78136 -12.0426 35.7934
CA -24.22 -0.614793 48.0349
CA 19.3707 -15.4156 46.8063
CA 30.393 -21.5895 71.3505
CA 35.9958 -24.4892 49.6141
CA 38.7332 6.40212 62.4497
CA 23.1672 -10.3321 32.2069
CA 32.022 -20.5372 43.9892
CA 22.1764 -22.0939 61.6365
CA 27.6447 -13.182 58.4423
CA 22.0473 -29.8577 62.7259
CA 36.1981 -10.7015 68.3563
CA 15.2641 -2.46427 34.6948
CA 8.68994 -19.4989 60.7542
CA 21.5692 10.4013 33.8707
CA 16.9998 4.83652 16.032
CA 20.7314 8.44503 37.1738
CA 28.1458 2.73456 63.1381
CA 22.8837 20.6317 47.3647
CA 38.4805 -24.5571 44.3014
CA 19.6946 17.2095 42.1907
CA 45.7051 -1.51261 43.1164
CA -6.32021 -8.75544 52.0726
CA 6.20066 -17.7731 63.058
CA -8.30464 -29.3925 43.1557
CA 4.75376 -3.29818 61.291
CA 32.7582 -1.66589 70.9005
CA 18.7931 -20.1466 74.0853
CA 35.0492 -7.27166 64.8192
CA 37.8752 -8.36883 63.9979
CA 25.276 -13.3977 32.0317
CA 8.69925 -20.9187 62.3673
CA -20.9721 -7.93148 53.9681
CA 13.7997 1.70314 63.7582
CA 8.38888 -23.9654 54.4274
CA 32.6831 5.36359 70.3601
CA 7.32897 -20.182 65.3038
CA 22.8263 -31.3825 54.9429
CA 13.4051 11.4736 19.7096
CA 9.07144 -20.4457 67.2288
CA 45.2553 -21.6838 52.4716
CA 19.4293 -16.4629 26.9926
CA 20.8984 5.31603 59.5451
CA 36.0906 -7.56446 33.2976
CA -22.4564 -9.51275 49.6319
CA 27.0011 -21.8103 39.4489
CA 35.9677 -1.80723 42.3054
CA 23.8619 8.17787 68.1581
CA 25.349 0.362467 75.3035
CA -4.53087 -1.51576 70.7039
CA 27.9737 -13.8191 84.7684
CA 18.9483 9.63687 36.8094
CA 29.6024 -0.902709 69.3165
CA 20.2284 -15.9054 35.1445
CA 18.8457 11.8409 39.2707
CA -4.62481 -4.47346 51.9252
CA 1.93589 4.45191 61.8928
CA 3.97123 -21.9041 70.5265
CA -1.12983 8.01377 52.3118
CA 32.6505 -3.86867 70.0513
CA 22.9784 12.3068 63.7295
CA 45.2662 3.83681 65.5487
CA 11.7535 -14.4452 71.8488
CA 14.9709 -16.0133 35.9337
CA 43.2994 -1.7796 47.6711
CA -0.567041 2.74001 51.649
CA 24.2472 6.53115 63.8581
CA -1.75857 -17.0457 45.597
CA 8.10019 -16.5708 67.7913
CA 29.8165 -0.01696 64.0285
CA 24.2853 -31.2281 59.6908
CA 14.153 0.406104 41.8846
CA 4.30432 -9.50743 31.9906
CA 31.5003 -18.343 45.4529
CA 32.8796 -7.49519 50.7431
CA -18.5896 -8.39099 43.5171
CA 24.0321 -9.88097 35.4084
CA 44.7539 3.52846 63.7242
CA -3.26543 -19.2139 43.4096
CA 13.8183 -11.5786 64.3919
CA 32.6859 -8.50755 74.5668
CA 3.84231 -19.7052 68.237
CA 3.78117 -24.4348 70.691
CA 23.7567 -14.6722 76.2316
CA 10.2448 -7.52805 33.6817
CA 9.90988 -24.4517 46.6056
CA 18.579 13.6709 33.8079
CA 24.3149 -11.2683 72.7262
CA 23.8617 17.7136 45.8456
CA 25.7158 -4.10934 52.5677
CA 15.4803 -18.4722 37.6919
CA 18.9624 -12.0226 51.6186
CA 20.0219 -25.923 43.4407
CA 14.8299 13.1623 19.8905
CA 16.9508 6.35611 12.3984
CA 27.2615 -7.2682 81.4293
CA 18.6646 -23.4822 61.6968
CA 25.9114 -23.7317 72.2297
CA 17.5567 -31.1424 63.5548
CA 29.2446 -9.4041 29.2228
CA 26.8681 -18.2491 68.8238
CA 10.3291 -10.0768 37.0198
CA 15.1641 9.02723 34.0442
CA 23.1218 -10.3142 52.9208
CA 46.811 -1.35048 38.4598
CA 15.3086 -14.6965 52.7619
CA 21.8474 -9.36834 28.9306
CA 41.1284 -13.7943 65.0258
CA 22.7992 -17.6304 49.1763
CA 21.7931 -21.1776 42.3647
CA 17.484 -16.7129 73.4062
CA 39.4345 -14.2954 45.2883
CA 23.2117 -16.4147 64.2189
CA 37.9046 -15.9257 46.3078
CA 49.9269 -0.863329 36.7766
CA 2.44979 1.73968 55.701
CA 30.4641 -4.56327 63.4022
CA 20.1074 8.31373 35.2479
CA 41.5003 6.33792 62.8852
CA 8.0938 -0.00177599 75.8419
CA 11.52 -9.82994 64.0475
CA 9.75658 -7.67897 43.9684
CA 46.3354 -25.792 48.1569
CA 9.21755 -5.89091 41.9983
CA 13.7334 -0.542932 51.2109
CA 13.531 1.18274 36.74
CA 36.4697 -13.7494 64.3496
CA 13.2439 -24.8799 60.4255
CA 7.94737 -22.9425 65.5493
CA 48.9005 -18.4767 56.2082
CA 2.66884 10.6381 52.1167
CA 15.28 7.93976 27.9418
CA 29.4246 -22.2672 80.7977
CA 14.4747 -22.3656 45.5284
CA 17.2743 -4.645 51.4139
CA 28.0253 -2.50659 71.4178
CA 44.5773 0.828923 41.6229
CA 24.6787 -9.4318 79.2112
CA 29.899 2.74386 60.9857
CA 12.1396 10.01 19.5155
CA 32.9199 1.4265 66.3376
CA -5.98314 -21.8163 44.8069
CA 11.6227 -17.9726 42.7646
CA -11.2408 -7.58955 53.8171
CA -24.8647 -4.4049 49.9025
CA 17.288 -2.49983 58.9295
CA 14.8147 -12.8008 51.8705
CA 22.8392 -13.2459 81.961
CA 7.73981 -6.96876 36.6156
CA 20.0998 5.20296 29.0583
CA 0.0317824 2.23557 47.6435
CA 33.0006 -17.8932 51.2629
CA 12.473 -7.43109 36.7191
CA 12.7756 4.81241 66.3995
CA 0.837827 -4.86606 53.0215
CA 12.6437 -0.446967 79.7648
CA 26.0561 7.56391 56.5521
CA 28.1015 -25.7738 76.1299
CA 30.661 3.112 73.1426
CA 25.2369 0.903867 53.4822
CA 16.1005 -25.2856 64.6678
CA 15.0531 -15.9283 55.3072
CA 43.0718 -23.5329 62.1406
CA 30.4836 -8.59987 53.3397
CA 22.4237 -17.8066 66.5629
CA 39.3875 -21.5796 59.5233
CA 25.0938 -7.30825 29.6327
CA 30.9098 -13.5817 61.7089
CA 11.2391 -1.36845 35.5867
CA 12.9727 -18.8283 58.4315
CA 24.9773 4.51668 29.9233
CA -19.8826 -4.69762 56.879
CA 32.0193 -25.2797 42.6155
CA -8.67605 -23.9067 43.6817
CA -1.44594 -13.9858 68.0967
CA 24.296 -29.0476 65.1065
CA 38.8095 -8.85755 62.1514
CA 15.0065 -6.16111 58.2
CA 16.2641 6.65918 51.95
CA 30.6641 -8.8946 67.5628
CA 46.2425 -29.8309 47.8859
CA 11.3491 -24.0949 44.9
CA 24.5399 -6.66957 74.5192
CA 9.15975 -6.63359 53.5799
CA 5.6211 -19.2265 64.4589
CA 6.20142 -21.4618 63.4606
CA 22.8434 13.0888 41.6089
CA 18.7959 -32.018 66.4045
CA 33.9608 -13.4292 70.7354
CA 30.8284 8.51806 40.8773
CA 16.6395 -1.05091 51.3275
CA -5.22424 10.6196 53.7939
CA 27.3731 -8.92448 32.3648
CA 15.815 2.34862 83.231
CA 7.20382 -24.2081 56.1444
CA 18.4297 -16.7647 35.4167
CA 23.4523 7.54262 66.2423
CA 6.38168 -1.36079 72.9404
CA 1.79566 -18.7266 71.3442
CA 3.25692 -20.427 50.6951
CA 15.0294 4.82396 12.466
CA 15.5232 1.18239 62.2843
CA 10.5967 -7.14359 40.8607
CA 9.95737 -4.34837 33.522
CA 5.6089 -3.08204 49.2688
CA 16.9455 4.88326 56.0527
CA 23.3211 22.7749 49.5217
CA 7.55995 -22.1194 76.9205
CA 6.59133 -7.15346 39.9365
CA -1.02503 -23.6941 70.8432
CA 26.2822 -5.80956 24.637
CA 18.3585 15.9615 31.267
CA 18.0685 14.4811 41.4907
CA 41.7527 -20.7745 59.8357
CA 25.6724 -8.20853 76.618
CA 27.9953 -5.51603 62.3003
CA -12.6364 6.16269 34.3437
CA -1.0836 3.58575 65.4166
CA 11.4378 -12.1415 43.4259
CA -2.37007 7.17372 48.282
CA 17.245 -6.38014 32.7102
CA 30.581 -9.61705 61.6764
CA 33.6651 -5.48542 66.7428
CA 27.5447 -18.6318 66.9422
CA 20.594 -20.3881 30.8569
CA 39.5295 -17.9805 65.4661
CA 30.1747 -25.4017 76.4395
CA 31.4325 -20.1901 41.9787
CA 22.2397 -6.39073 60.3627
CA 0.925058 5.84875 44.5153
CA -2.31171 -1.65452 47.1237
CA 35.1921 6.51736 70.5498
CA 18.6528 -13.0977 68.1788
CA 25.2334 -14.1736 65.2034
CA 12.6487 -11.2411 61.9913
CA 23.6428 -2.51151 65.3731
CA 4.82142 -17.2009 56.3957
CA 9.04856 6.88226 69.998
CA 23.0171 15.5279 41.2044
CA 30.1949 9.85519 48.8639
CA 21.2983 5.10109 54.6585
CA 10.6103 3.70834 71.732
CA 19.16 -15.5339 72.4875
CA -15.4416 5.92553 34.5968
CA -5.69836 -26.0361 43.3977
CA 27.7898 -0.267193 71.0668
CA 8.95897 -5.04632 38.2881
CA 45.5528 -15.9597 58.6217
CA 33.947 -24.8861 49.6642
CA 19.6896 -11.7412 40.5862
CA 20.6505 -17.3761 39.5176
CA 46.0949 -20.4838 49.6253
CA 31.0244 -8.0981 30.1953
CA 23.9807 -4.1053 67.821
CA 4.95881 -12.6399 60.1998
CA 28.4243 -10.589 58.3756
CA 34.1869 -26.3248 38.6325
CA 2.98952 -0.850091 48.6248
CA -15.815 -8.60131 40.7417
CA 2.65033 -24.1671 73.0375
CA 26.4717 9.10709 69.1031
CA 11.2782 -11.1754 65.3398
CA 28.8552 10.1727 47.2032
CA 3.88787 -1.21678 61.317
CA -3.53316 -13.2189 67.224
CA 27.2145 -9.20297 80.4619
CA 29.5291 7.7602 68.6948
CA -23.3113 0.913825 51.402
CA 18.3888 -7.69687 69.2717
CA 36.4078 -1.7292 39.9449
CA 19.8292 -6.19994 57.7477
CA 20.1553 -16.3537 79.2073
CA -10.8109 2.65149 33.8852
CA 18.4291 -30.4605 43.5366
CA 42.9745 -13.9368 58.9007
CA 9.48541 -18.5117 56.3511
CA 15.0862 9.7634 9.14064
CA 34.3837 -28.3693 50.5385
CA 42.5442 -20.0546 62.3298
CA 21.3175 -14.2933 53.1603
CA 14.0749 -16.9065 42.4102
CA 20.0877 -13.1492 56.5396
CA 34.6001 -10.8262 32.8037
CA 29.413 4.48483 75.6147
CA -13.8969 -0.272984 36.9355
CA 32.0846 -21.1541 50.8135
CA 23.9177 -12.759 79.6954
CA 43.6135 -2.21676 41.545
CA 11.8541 2.63562 47.2314
CA 8.4431 -28.1175 46.8251
CA -1.39427 0.0859678 58.2359
CA 23.2252 1.54591 69.8004
CA -2.98213 -16.382 40.7538
CA 36.0516 -26.0048 47.4398
CA 37.671 -10.1635 70.3585
CA 15.3077 -10.5114 52.3128
CA 1.61444 -27.87 72.0301
CA 31.9452 -12.5382 60.0483
CA 28.1987 -31.3267 60.7513
CA 13.9874 10.3703 23.0455
CA 29.6882 -3.00725 22.27
CA -12.6391 -4.97856 38.5873
CA 5.8149 -8.60044 32.7826
CA -15.2621 -6.07714 56.1954
CA -0.339332 -23.4817 69.1469
CA 27.7776 -22.9516 43.1608
CA 18.74 -6.50669 67.2469
CA 49.0366 -14.9353 58.1099
CA 41.1032 -16.3467 52.3823
CA 19.5151 -20.289 39.5922
CA 19.6897 -16.4164 29.3063
CA 33.1127 -14.0047 53.7117
CA -21.624 -10.5547 53.0915
CA 11.9631 7.5903 38.3605
CA 19.1747 -20.1417 68.431
CA 17.9501 -8.22285 55.912
CA 8.38676 -10.6926 41.6601
CA 11.5339 -1.80208 49.7059
CA 32.3564 -7.44739 62.7058
CA 41.8768 -21.4929 63.2275
CA 10.9766 8.86708 70.4787
CA 30.152 -12.3136 56.4688
CA -24.1724 -2.40225 50.3489
CA 12.397 -21.2208 58.0665
CA 25.2791 -29.705 50.7049
CA 28.9649 4.54106 51.0355
CA -21.3232 -6.24276 41.9274
CA 3.95664 -14.762 36.6224
CA 8.52975 -5.64153 35.3977
CA -2.193 -11.0995 67.0435
CA 8.28983 -1.49398 69.3902
CA 45.4135 9.59566 61.8295
CA 24.5584 -26.3254 69.901
CA 15.7506 -5.32324 48.9763
CA 2.91497 -18.3833 47.3979
CA 0.655543 -21.9076 67.4798
CA 6.35598 -12.1482 57.5968
CA 18.663 -18.5363 30.7129
CA 14.9472 -15.6362 37.7323
CA 13.3431 -9.37358 68.1768
CA 1.85626 -21.1087 60.9293
CA 17.6009 -11.7824 67.4718
CA 20.1271 -17.854 67.9366
CA 36.0088 -12.4282 54.8074
CA 18.7124 -18.1465 37.1495
CA 33.6517 -0.402312 40.4038
CA 7.51644 -6.12986 53.0409
CA 11.1315 8.25499 10.8278
CA 12.5877 -11.5757 49.6179
CA 35.2579 -6.44038 37.4389
CA 47.6211 -0.268956 42.6254
CA 2.68316 -8.63373 52.1926
CA 25.3281 -6.1281 65.7617
CA 23.679 5.9172 29.4423
CA 33.7118 -22.8479 44.8623
CA 24.4226 5.24633 27.8102
CA 27.1074 7.65703 41.9302
CA -7.96599 -21.2938 69.2597
CA 34.1136 -9.06697 63.5924
CA 34.2405 6.60825 72.5326
CA 32.81 -0.441738 63.8704
CA 15.2409 0.220499 60.6379
CA -21.3195 -2.45335 54.5464
CA 24.5748 -18.3515 43.9688
CA 32.9048 -24.7765 38.6183
CA 33.2634 1.68873 44.0481
CA 34.2554 -20.2392 38.2094
CA 6.37358 -0.250283 57.9183
CA 37.262 -11.3426 49.1483
CA 17.0798 -24.98 62.5171
CA 19.8289 7.81817 40.3501
CA 30.085 -10.5734 53.699
CA 12.9079 -23.8379 55.0899
CA 8.00663 -25.6358 46.0677
CA 36.7663 -8.58856 30.4912
CA 19.9568 -31.9079 60.0528
CA 27.9366 -7.25317 17.6532
CA 2.20474 1.00176 46.6554
CA 32.4051 -23.858 40.2717
CA 20.3336 -14.161 75.0591
CA -22.8834 -2.39278 52.8422
CA 6.06021 -6.70049 51.3697
CA 22.9871 -9.97696 64.364
CA 13.4669 -26.6744 62.161
CA 23.7516 -29.2897 52.2407
CA 14.6458 10.2906 16.5112
CA 27.4882 -19.9422 68.7152
CA 12.4234 10.1167 16.9672
CA -2.80967 8.38802 43.9936
CA 20.84 -18.868 29.3023
CA 14.8298 -4.20161 51.7713
CA 24.5712 -16.1361 30.0054
CA 1.34778 -10.9463 56.4761
CA 21.2976 -7.81696 65.1675
CA -8.1594 -6.13584 51.8528
CA 24.1747 -10.4345 65.9294
CA 34.5498 -19.4812 48.4261
CA 33.5451 -9.0182 71.9526
CA 29.6495 -16.4768 68.3713
CA 44.8036 -21.4922 48.1924
CA -25.5333 -4.53868 48.0935
CA -13.3985 -3.1072 53.7449
CA 16.8052 -1.60062 55.0014
CA 2.46198 0.252163 64.3312
CA 27.392 -3.12749 18.7775
CA 5.41635 -0.803275 47.3304
CA 14.8789 -9.07488 65.185
CA 30.3257 -9.8503 69.22
CA 24.3018 -3.68819 69.5719
CA 13.6589 14.2149 16.6374
CA 14.8478 3.23231 14.3447
CA 31.0401 0.0642467 65.9427
CA 18.4566 4.04032 42.3965
CA 16.4239 -16.5007 29.9829
CA 34.8175 -7.97938 72.8685
CA 41.8098 -2.51524 41.9175
CA 32.8994 -1.83206 43.7291
CA 17.9893 7.59623 35.6629
CA 10.6229 -11.2717 75.12
CA -23.6194 1.72226 47.7483
CA 1.59681 -13.3954 57.0524
CA 9.26095 -24.657 52.7191
CA 23.1879 -7.87408 28.7397
CA 13.87 -23.3719 58.4882
CA 37.3633 -15.8397 49.8118
CA 30.1024 -25.233 74.3478
CA 9.41779 -0.155565 70.9287
CA 18.1588 -14.7967 67.8471
CA 7.09197 -9.57599 40.1484
CA 11.3623 1.32132 62.4241
CA -24.334 2.05561 49.9743
CA 14.1296 -6.117 69.5633
CA 31.7304 -22.0517 47.7649
CA 20.0838 8.74528 28.5451
CA -24.575 -2.98901 43.6205
CA 12.3066 -19.0463 44.1047
CA 0.332961 -18.3189 67.5601
CA -0.0975477 2.65093 69.1995
CA 26.1733 -7.54758 69.4536
CA 38.7324 -8.93695 34.2918
CA 46.2023 -19.7429 59.5252
CA 7.84931 1.40257 45.9342
CA -4.81475 -11.0812 56.6594
CA 15.1536 -1.2768 47.1256
CA 17.0463 8.5222 13.1485
CA 6.46855 -19.3636 53.5906
