489

CA 13.5517 10.7494 25.9106
CA 20.1054 -19.5714 47.8843
CA 15.0076 -7.28298 47.1539
CA 18.698 -19.6091 60.6511
CA 19.4948 -13.4894 65.7043
CA 16.9039 -19.0814 40.897
CA 23.2147 -12.5144 77.3238
CA 24.2669 -7.70594 65.4623
CA 24.8962 6.36057 66.8785
CA 42.4929 -1.08071 42.9814
CA 21.2067 -30.3158 59.5025
CA 27.4427 -13.7973 81.6885
CA 27.6789 -5.6398 74.0366
CA 24.3229 10.7377 63.7692
CA 3.72937 -26.2518 66.4819
CA 17.7059 -14.7243 56.2811
CA 27.4995 3.92237 27.4321
CA 44.0386 -24.2321 58.8866
CA 14.5372 -11.6894 71.559
CA 4.63309 -24.0252 52.17
CA 27.5094 -4.21521 32.4252
CA -11.3479 -3.68166 56.6631
CA 24.0593 -15.4171 66.8104
CA 13.9465 0.883951 56.6614
CA 29.5001 8.08401 46.9617
CA 34.5806 2.91005 72.6755
CA 16.7504 -11.3152 41.6876
CA 18.9307 -24.5508 37.9678
CA 20.57 -19.911 39.9826
CA 28.3071 5.20893 65.3187
CA 5.28809 3.72836 66.4209
CA 17.8065 -24.3364 56.126
CA 37.652 0.911266 70.8978
CA 42.6031 0.402605 46.7715
CA 27.6557 -23.6824 79.2095
CA 9.23576 1.10048 74.4204
CA 7.42411 4.58446 68.2077
CA 26.7698 4.09834 55.5598
CA -26.6949 -4.55635 41.2967
CA 9.8408 -2.66514 53.935
CA 39.7528 -9.85924 50.082
CA 20.9132 -22.6572 59.7885
CA 16.3139 -5.33615 67.0929
CA 6.78136 -12.0426 35.7934
CA 47.6979 -20.9431 50.9025
CA 8.92678 -8.51319 52.1971
CA 30.393 -21.5895 71.3505
CA 35.9958 -24.4892 49.6141
CA 38.7332 6.40212 62.4497
CA 38.7608 -11.951 65.7215
CA 35.3759 -5.32755 58.0371
CA 4.19656 -21.1722 63.263
CA 41.2183 -10.2373 45.971
CA 22.0473 -29.8577 62.7259
CA 36.1981 -10.7015 68.3563
CA 15.2641 -2.46427 34.6948
CA 7.604 -26.7856 54.6292
CA 21.5692 10.4013 33.8707
CA 16.9998 4.83652 16.032
CA 22.6421 -14.7743 68.7188
CA 28.1458 2.73456 63.1381
CA 22.0214 -15.3404 66.9236
CA 22.1441 -21.5424 45.0492
CA 9.15682 -31.2314 47.8493
CA 14.2544 -25.18 51.5593
CA -6.32021 -8.75544 52.0726
CA -9.3883 -28.7213 44.9599
CA -8.30464 -29.3925 43.1557
CA 25.4779 -13.7423 50.0653
CA 19.485 -4.13889 71.1399
CA 25.3407 -9.65233 59.5489
CA 33.474 -1.23521 71.7942
CA -21.2669 -4.90488 52.3546
CA 25.276 -13.3977 32.0317
CA 8.69925 -20.9187 62.3673
CA -20.9721 -7.93148 53.9681
CA 1.90796 -1.08555 56.6862
CA 11.1608 -21.7315 45.6057
CA 32.6831 5.36359 70.3601
CA 7.32897 -20.182 65.3038
CA 24.9336 -8.10047 21.974
CA 13.4051 11.4736 19.7096
CA 9.88769 -0.0941164 34.8044
CA 25.8467 -19.9122 42.6881
CA 26.3879 5.92411 62.5045
CA 15.2089 -8.66985 69.0089
CA -24.2556 -6.68881 52.5313
CA -22.4564 -9.51275 49.6319
CA 23.8035 -26.2626 57.6405
CA 35.9677 -1.80723 42.3054
CA 23.8619 8.17787 68.1581
CA 38.5058 3.81302 69.1021
CA -4.53087 -1.51576 70.7039
CA 0.174937 -24.3971 72.2867
CA 18.9483 9.63687 36.8094
CA 29.6024 -0.902709 69.3165
CA 21.6041 -7.03534 69.0902
CA 18.8457 11.8409 39.2707
CA -4.62481 -4.47346 51.9252
CA 1.93589 4.45191 61.8928
CA 25.0003 -20.7475 75.8042
CA -1.12983 8.01377 52.3118
CA -3.62818 -25.3768 66.7974
CA 19.5796 -23.6126 56.6591
CA 45.2662 3.83681 65.5487
CA 10.3064 -1.67261 69.2338
CA 14.9709 -16.0133 35.9337
CA 43.2994 -1.7796 47.6711
CA -0.567041 2.74001 51.649
CA 24.2472 6.53115 63.8581
CA -1.75857 -17.0457 45.597
CA 32.7904 7.59321 66.8333
CA 8.15083 -2.69945 70.993
CA 18.0938 -24.9103 36.1569
CA 14.153 0.406104 41.8846
CA 29.0728 -8.65267 65.9578
CA 14.6972 3.16169 45.2909
CA 36.5538 7.61088 72.2263
CA -18.5896 -8.39099 43.5171
CA 13.8519 -22.0361 42.7087
CA 9.3753 0.017237 78.6094
CA -3.26543 -19.2139 43.4096
CA 11.5734 -13.5073 64.3689
CA 30.2398 -0.65638 74.7335
CA 34.0278 7.82241 74.7949
CA 3.78117 -24.4348 70.691
CA 23.7567 -14.6722 76.2316
CA 10.2448 -7.52805 33.6817
CA 9.90988 -24.4517 46.6056
CA 33.356 -7.23846 65.7299
CA 24.3149 -11.2683 72.7262
CA 13.8559 13.1844 22.2479
CA 25.7158 -4.10934 52.5677
CA 15.4803 -18.4722 37.6919
CA 18.9624 -12.0226 51.6186
CA 20.0219 -25.923 43.4407
CA 15.247 4.86418 70.2359
CA 17.7494 5.52693 72.356
CA 47.9405 -3.71817 40.0303
CA 17.8558 -18.1699 67.8871
CA 25.9114 -23.7317 72.2297
CA 11.3146 -24.1579 48.4202
CA 29.2446 -9.4041 29.2228
CA 21.4881 -33.6411 44.6549
CA 10.3291 -10.0768 37.0198
CA 8.78355 7.34404 73.5503
CA 23.1218 -10.3142 52.9208
CA 46.811 -1.35048 38.4598
CA 15.3086 -14.6965 52.7619
CA 52.2205 -2.21071 37.6763
CA 41.1284 -13.7943 65.0258
CA 26.6227 -30.6568 64.4959
CA 19.9469 -16.3426 66.922
CA -19.5358 -9.75609 42.3986
CA 39.4345 -14.2954 45.2883
CA 23.2117 -16.4147 64.2189
CA 5.6332 1.73405 67.0126
CA 17.9716 -8.7546 72.8376
CA 2.44979 1.73968 55.701
CA 36.1588 -3.51916 61.9833
CA 37.8829 4.56687 65.3071
CA -5.76165 -23.1968 68.7679
CA 5.33723 -19.6575 76.6686
CA 43.5648 4.50459 60.52
CA 10.1646 -0.0463618 57.4116
CA 46.3354 -25.792 48.1569
CA 13.8905 -12.0996 34.4778
CA 9.56542 -2.69269 46.5824
CA 13.531 1.18274 36.74
CA 10.6438 -20.4912 55.1874
CA 13.2439 -24.8799 60.4255
CA 7.94737 -22.9425 65.5493
CA 15.0207 -9.91498 43.886
CA 2.66884 10.6381 52.1167
CA 15.28 7.93976 27.9418
CA 37.4667 -21.4116 39.1876
CA 14.7512 -16.7949 45.4278
CA 23.1182 5.57921 65.9346
CA 27.7034 -13.7666 34.7445
CA -0.950487 -31.124 72.1488
CA 15.235 0.655121 34.0076
CA 7.30812 -3.17631 73.2788
CA 12.1396 10.01 19.5155
CA 19.2465 -4.47747 60.4468
CA 20.9493 -9.869 52.3949
CA 11.6227 -17.9726 42.7646
CA 39.2223 -16.1826 66.3787
CA 17.0891 -28.7532 42.4128
CA 17.288 -2.49983 58.9295
CA 40.1584 3.46456 67.106
CA 30.2482 -8.52313 76.9496
CA 30.2 2.00979 75.64
CA 20.0998 5.20296 29.0583
CA 0.0317824 2.23557 47.6435
CA 33.0006 -17.8932 51.2629
CA -24.9788 -8.1275 51.687
CA 40.3531 -9.58044 70.4234
CA 0.837827 -4.86606 53.0215
CA 12.6437 -0.446967 79.7648
CA 26.0561 7.56391 56.5521
CA 28.1015 -25.7738 76.1299
CA 21.1562 -3.44562 73.6972
CA 11.414 10.9099 23.8278
CA 15.5879 1.10515 47.251
CA 11.6881 -9.24932 42.8367
CA 25.2254 -16.6125 73.9966
CA 25.109 -8.07279 79.176
CA -2.91121 -28.9958 65.8674
CA 4.14908 6.28814 49.0398
CA 27.892 -5.14968 22.5064
CA 32.1558 -0.977144 62.151
CA 11.2391 -1.36845 35.5867
CA 27.9736 -5.05495 24.4481
CA 20.2917 -9.37926 41.4498
CA -19.8826 -4.69762 56.879
CA 32.0193 -25.2797 42.6155
CA 12.6069 -5.10801 43.6638
CA -1.44594 -13.9858 68.0967
CA 24.296 -29.0476 65.1065
CA 5.44441 -4.05713 73.7185
CA 15.0065 -6.16111 58.2
CA 16.2641 6.65918 51.95
CA 30.6641 -8.8946 67.5628
CA 40.4778 5.36804 66.2122
CA -4.31828 -18.7207 53.382
CA 10.1187 -9.55868 41.2316
CA 9.15975 -6.63359 53.5799
CA 17.8282 -3.13134 32.8062
CA 6.20142 -21.4618 63.4606
CA 27.143 -8.17234 53.0364
CA 18.7959 -32.018 66.4045
CA 30.6037 -18.5995 68.9802
CA 10.4172 -11.9036 74.6931
CA 2.90358 -11.1869 32.5358
CA 25.3301 -14.4628 62.6909
CA 27.3731 -8.92448 32.3648
CA 15.815 2.34862 83.231
CA 7.20382 -24.2081 56.1444
CA 21.3537 -5.33674 64.6007
CA 23.4523 7.54262 66.2423
CA 22.3559 -6.89859 66.0113
CA 1.79566 -18.7266 71.3442
CA 3.25692 -20.427 50.6951
CA 12.277 6.74689 68.0122
CA 15.5232 1.18239 62.2843
CA 21.2048 -19.551 57.9528
CA 28.6214 6.71401 58.1347
CA 5.6089 -3.08204 49.2688
CA 16.9455 4.88326 56.0527
CA 19.6853 4.96748 66.2964
CA 7.55995 -22.1194 76.9205
CA 6.59133 -7.15346 39.9365
CA 8.58138 3.26144 45.5075
CA 3.49472 -16.212 58.3771
CA 41.2474 3.16014 62.8273
CA 18.0685 14.4811 41.4907
CA 22.0555 -7.50132 24.7157
CA 25.6724 -8.20853 76.618
CA 27.9953 -5.51603 62.3003
CA -12.6364 6.16269 34.3437
CA -1.0836 3.58575 65.4166
CA 42.5873 -17.7117 48.9728
CA 29.2042 -3.67214 24.8755
CA 17.245 -6.38014 32.7102
CA 6.41467 -24.3674 54.2798
CA 16.3489 5.8941 35.4806
CA 15.422 11.2746 40.4913
CA 10.1406 10.6043 11.5729
CA 39.5295 -17.9805 65.4661
CA -1.97601 0.567708 63.5069
CA 31.4325 -20.1901 41.9787
CA 22.2397 -6.39073 60.3627
CA 37.6348 -25.5398 42.7458
CA 31.9974 6.07454 40.5405
CA 14.5868 -11.1376 56.2724
CA 15.9345 -20.9475 45.2466
CA -4.21737 -2.85093 61.9333
CA 12.6487 -11.2411 61.9913
CA 37.1554 2.30198 68.6066
CA 30.7763 -6.3882 64.7595
CA 9.04856 6.88226 69.998
CA 23.0171 15.5279 41.2044
CA 9.61816 2.0959 61.397
CA 21.2983 5.10109 54.6585
CA 39.423 1.74651 68.6621
CA 19.16 -15.5339 72.4875
CA 16.7323 -6.5688 59.9735
CA -5.69836 -26.0361 43.3977
CA 27.7898 -0.267193 71.0668
CA 8.95897 -5.04632 38.2881
CA 45.5528 -15.9597 58.6217
CA 15.9596 -21.1277 60.3574
CA 19.6896 -11.7412 40.5862
CA 30.2051 1.9354 65.4882
CA 46.0949 -20.4838 49.6253
CA 47.183 -21.1958 60.5503
CA 19.7053 -21.7421 56.9754
CA 4.95881 -12.6399 60.1998
CA 28.4243 -10.589 58.3756
CA 17.6094 -19.5377 42.886
CA 12.5296 -26.0403 54.53
CA -15.815 -8.60131 40.7417
CA 5.65368 -20.054 56.2378
CA 14.3307 -13.7545 43.7731
CA 38.0579 -14.9791 51.4283
CA 13.1343 -5.59911 57.9809
CA 20.5315 -23.7237 58.2895
CA 17.3593 -20.2219 61.7923
CA 27.2145 -9.20297 80.4619
CA 14.2175 0.0887921 44.6508
CA -23.3113 0.913825 51.402
CA 18.3888 -7.69687 69.2717
CA 36.4078 -1.7292 39.9449
CA 13.529 -7.54242 44.5885
CA 24.261 -2.54632 67.0108
CA -10.8109 2.65149 33.8852
CA 30.0202 8.61406 71.8053
CA 16.9072 -12.9526 48.6608
CA 16.229 -26.9235 52.2104
CA 15.0862 9.7634 9.14064
CA 25.569 -9.25912 62.5428
CA 42.5442 -20.0546 62.3298
CA 21.3175 -14.2933 53.1603
CA 38.889 -14.098 48.6632
CA 37.2124 -12.7354 50.7809
CA 34.6001 -10.8262 32.8037
CA 10.4201 -7.34556 64.4877
CA -13.8969 -0.272984 36.9355
CA 14.301 -12.5659 53.7393
CA 25.3284 -16.2406 79.2867
CA 3.67583 -6.78977 55.7884
CA 11.8541 2.63562 47.2314
CA 8.4431 -28.1175 46.8251
CA -1.39427 0.0859678 58.2359
CA 6.79725 1.39894 47.8882
CA -2.98213 -16.382 40.7538
CA 33.2798 -18.2858 39.8777
CA 11.8209 -2.41411 37.6882
CA 21.862 -25.4271 57.3396
CA 1.61444 -27.87 72.0301
CA 31.9452 -12.5382 60.0483
CA 29.2029 6.88891 50.6676
CA 11.8993 -3.64557 49.2697
CA 29.6882 -3.00725 22.27
CA -12.6391 -4.97856 38.5873
CA -30.3311 -1.28406 41.1055
CA -15.2621 -6.07714 56.1954
CA -0.339332 -23.4817 69.1469
CA 27.7776 -22.9516 43.1608
CA 9.33241 -25.1623 58.6891
CA 49.0366 -14.9353 58.1099
CA 41.1032 -16.3467 52.3823
CA 1.63006 -24.6676 69.8884
CA 4.5063 -25.0095 73.0637
CA 33.1127 -14.0047 53.7117
CA -6.33058 -1.67619 52.9801
CA 11.9631 7.5903 38.3605
CA 34.3857 -13.4128 58.9588
CA 16.5269 -18.9866 73.9575
CA 32.2177 -1.36581 76.2555
CA 11.5339 -1.80208 49.7059
CA 13.2516 -24.8131 46.3905
CA 3.40739 -17.4966 51.4302
CA 34.7647 -13.0892 56.428
CA 11.2282 -13.2006 66.565
CA 15.8136 14.1011 17.7717
CA 12.397 -21.2208 58.0665
CA 25.2791 -29.705 50.7049
CA 28.9649 4.54106 51.0355
CA -21.3232 -6.24276 41.9274
CA 8.82584 -4.28924 72.1658
CA 8.52975 -5.64153 35.3977
CA -2.193 -11.0995 67.0435
CA 8.28983 -1.49398 69.3902
CA 21.1563 -3.43714 63.9247
CA 51.1361 -2.6444 33.0659
CA 23.559 -13.8236 36.5031
CA 2.91497 -18.3833 47.3979
CA 1.98507 0.698489 48.9298
CA 16.9617 -15.6549 64.955
CA 18.663 -18.5363 30.7129
CA 34.5902 -5.03122 60.4983
CA -0.760327 -18.7442 53.4151
CA 21.4322 -3.69002 71.5727
CA -11.4308 -24.2032 44.152
CA 20.1271 -17.854 67.9366
CA 6.77008 -2.96483 59.8965
CA 18.7124 -18.1465 37.1495
CA 15.81 -26.2152 49.5764
CA 7.51644 -6.12986 53.0409
CA 27.1469 -1.58032 20.4758
CA 12.5877 -11.5757 49.6179
CA 35.2579 -6.44038 37.4389
CA 47.6211 -0.268956 42.6254
CA 39.9237 -16.4443 62.3492
CA -3.75914 -21.207 41.6745
CA -21.3105 0.959052 48.2048
CA 33.7118 -22.8479 44.8623
CA 10.0404 11.3923 18.234
CA 27.1074 7.65703 41.9302
CA -7.96599 -21.2938 69.2597
CA 32.2069 -17.6186 53.1868
CA 34.2405 6.60825 72.5326
CA 32.81 -0.441738 63.8704
CA 34.9585 -13.9425 52.2475
CA 24.9765 -3.68943 29.5293
CA 33.5343 -3.3266 70.5871
CA 14.1448 -10.7565 66.2468
CA 33.2634 1.68873 44.0481
CA 34.2554 -20.2392 38.2094
CA 37.3805 0.171162 40.5748
CA 19.4297 11.0115 32.444
CA 37.0643 3.63642 43.9542
CA 20.121 -17.3258 43.4279
CA 30.085 -10.5734 53.699
CA 24.3972 -18.7095 43.7472
CA 28.1227 -7.32345 61.8641
CA 29.7094 6.06304 67.0021
CA 16.2134 -2.13249 32.329
CA 24.8912 -19.5352 40.2116
CA 21.1638 -10.6622 75.1483
CA 25.0492 -33.7016 59.5459
CA 44.4307 -4.13297 45.3958
CA -22.8834 -2.39278 52.8422
CA 6.06021 -6.70049 51.3697
CA 25.6315 -14.1266 75.6144
CA 11.3358 -5.83331 62.8642
CA 23.7516 -29.2897 52.2407
CA 14.6458 10.2906 16.5112
CA 27.4882 -19.9422 68.7152
CA 29.6757 -23.5549 71.9034
CA 5.89505 -0.448961 64.1416
CA 20.84 -18.868 29.3023
CA 1.39368 -22.7832 73.4972
CA 31.8116 7.04278 39.0049
CA 18.3664 -29.4717 53.4963
CA 18.8331 4.68205 34.519
CA 8.51883 1.09729 35.3085
CA 13.1689 0.760064 47.7993
CA 22.3486 12.7913 42.7172
CA 33.5451 -9.0182 71.9526
CA 39.6683 -27.7564 39.2925
CA 44.8036 -21.4922 48.1924
CA -25.5333 -4.53868 48.0935
CA 41.0495 -21.1952 64.9457
CA 25.0406 -23.932 40.526
CA 27.5806 -0.740722 24.6366
CA 27.392 -3.12749 18.7775
CA 12.3725 6.8573 75.5972
CA 1.99647 -4.20369 60.9871
CA 28.8838 8.39703 60.5646
CA 24.3018 -3.68819 69.5719
CA 13.6589 14.2149 16.6374
CA 17.0548 -31.4283 67.3896
CA 31.0401 0.0642467 65.9427
CA 18.4566 4.04032 42.3965
CA 3.38631 -3.36378 55.8607
CA 22.2227 -13.3705 41.7333
CA -7.97391 -2.9671 54.4359
CA 23.2137 -10.3023 49.9749
CA 16.7791 -21.4117 33.9605
CA 38.7947 -26.9603 44.3538
CA 34.0739 1.55558 46.0409
CA 1.59681 -13.3954 57.0524
CA 22.5459 -31.0657 57.9209
CA 23.1879 -7.87408 28.7397
CA 13.87 -23.3719 58.4882
CA 37.3633 -15.8397 49.8118
CA 36.2828 -14.9816 69.8713
CA 26.7298 -0.568203 22.7164
CA 25.5123 8.30814 67.3993
CA -12.9408 -0.90504 32.0089
CA 31.4742 2.63242 73.3456
CA 6.33522 -5.73464 63.3317
CA 9.64723 -26.2111 55.1836
CA 20.965 -13.1666 43.1261
CA 20.0838 8.74528 28.5451
CA -24.575 -2.98901 43.6205
CA 12.3066 -19.0463 44.1047
CA 0.332961 -18.3189 67.5601
CA -12.8723 -29.8466 45.9752
CA 32.9492 -6.71575 63.333
CA 38.7324 -8.93695 34.2918
CA 46.2023 -19.7429 59.5252
CA 26.0537 4.48716 69.5003
CA 5.3777 -5.56746 69.4702
CA 31.4675 8.30992 45.8767
CA 17.0463 8.5222 13.1485
CA 19.3303 -3.05334 30.8214
