489

CA 17.9309 -12.2594 37.9266
CA 26.2314 -19.2222 83.2054
CA 11.1422 -1.355 40.6827
CA 25.3342 7.01739 43.6594
CA 14.1744 -5.13329 51.4848
CA 38.7199 -23.1322 41.3011
CA 13.8929 -2.48378 61.1455
CA 15.3677 -23.329 58.6483
CA 42.1272 -25.6267 36.089
CA 42.4929 -1.08071 42.9814
CA 22.2049 -18.5116 72.7478
CA 40.6552 -29.3872 49.7107
CA 18.0095 -17.786 77.0645
CA 24.6683 -4.17718 62.4428
CA 3.72937 -26.2518 66.4819
CA 4.97059 -3.43153 54.9127
CA 48.2938 -2.80315 44.7519
CA 20.7088 -21.8004 69.5378
CA 26.1589 -23.6289 49.5642
CA 15.6724 -32.5671 63.7742
CA 15.8786 -12.4554 38.5058
CA -11.3479 -3.68166 56.6631
CA 28.8514 -24.9903 68.294
CA 19.4399 -19.2817 42.1267
CA 23.5476 -19.5769 59.9771
CA 5.21602 -25.5044 49.5142
CA 24.9416 -2.09542 64.0145
CA 18.9307 -24.5508 37.9678
CA 5.77483 1.19119 48.1367
CA 28.3071 5.20893 65.3187
CA 39.9877 2.82703 46.4546
CA 17.8065 -24.3364 56.126
CA 17.4174 -16.1655 44.2161
CA 12.1879 16.4711 17.0387
CA 27.0903 -24.9107 72.6289
CA 20.1316 7.62104 32.3773
CA 14.5669 -5.12161 42.6084
CA 11.6791 -31.2573 64.6019
CA 17.3113 -22.7383 51.4287
CA 9.8408 -2.66514 53.935
CA 39.7528 -9.85924 50.082
CA 30.6052 8.51227 67.2025
CA 46.4358 -24.0834 52.4892
CA 6.78136 -12.0426 35.7934
CA 34.0785 -2.71678 73.1266
CA -27.462 -3.14943 43.2928
CA 11.4671 2.89438 51.5606
CA 22.7407 10.8894 67.4881
CA 38.7332 6.40212 62.4497
CA 39.8362 4.72684 61.9717
CA 39.5085 -0.471121 41.2005
CA 4.19656 -21.1722 63.263
CA 23.4409 -2.8847 21.1219
CA 42.1912 5.51326 61.3366
CA 29.1909 -0.232673 59.8862
CA 18.2489 -17.4017 67.9339
CA 12.534 6.27409 45.8061
CA 28.0264 -16.4709 49.2764
CA 18.4511 -17.3916 46.4923
CA 17.8485 12.3446 32.862
CA -10.907 -8.38826 61.3698
CA 11.6126 -19.2625 56.4796
CA 1.34287 -31.3496 73.2362
CA 8.04449 13.2467 16.3964
CA 24.3856 -17.8108 69.2502
CA 13.1847 -8.08862 57.1034
CA -3.17723 -15.7211 43.7848
CA 23.2683 -11.9523 67.0946
CA 9.91503 13.772 19.1777
CA 12.9221 -6.03098 53.4729
CA 25.3407 -9.65233 59.5489
CA -6.46813 -5.43841 64.1476
CA -21.2669 -4.90488 52.3546
CA -4.05919 -3.37749 66.7547
CA 13.9892 0.339578 40.7537
CA 40.231 -24.2175 37.0859
CA 18.0115 -10.6058 39.49
CA 39.547 -11.3921 57.486
CA 31.9341 -27.3584 37.526
CA 10.5638 11.4528 28.8043
CA 24.9336 -8.10047 21.974
CA 13.4051 11.4736 19.7096
CA 9.88769 -0.0941164 34.8044
CA 25.8467 -19.9122 42.6881
CA 17.1513 -5.19505 50.232
CA 15.7139 -16.5981 46.1674
CA 6.12242 -24.9009 58.996
CA 26.9679 -12.0685 49.7267
CA 17.516 -14.4574 36.263
CA 32.7373 -26.3222 39.1136
CA 9.81613 -7.91547 47.8579
CA 46.1593 -1.54143 42.2434
CA -4.53087 -1.51576 70.7039
CA 19.316 -13.6064 67.7535
CA 11.446 -3.85707 43.0132
CA 22.106 -22.9874 36.0697
CA 48.6372 -18.9145 49.0613
CA 29.4804 -15.6733 81.889
CA 36.4072 -7.85906 39.0265
CA 1.93798 -1.96516 52.4234
CA 29.6795 -13.0118 37.9776
CA 4.34118 2.24019 45.1097
CA 25.4554 -11.7406 51.0398
CA 19.5796 -23.6126 56.6591
CA 17.1248 4.496 57.0812
CA 18.0158 -21.0071 58.9554
CA 40.5146 -16.7835 59.6849
CA 43.2994 -1.7796 47.6711
CA -0.567041 2.74001 51.649
CA 21.5981 -5.57818 56.987
CA 23.1102 18.6393 39.621
CA 25.9924 -10.7699 70.2031
CA 20.9549 -23.6527 34.6855
CA 5.5287 -27.0436 58.6428
CA 18.8932 -16.9784 35.5492
CA 49.6877 -12.8812 53.9811
CA 25.0775 -18.1439 63.3123
CA 36.2544 -21.4158 39.3286
CA 34.9307 -2.47777 38.9239
CA 53.1504 4.16956 36.7972
CA 11.2063 -17.6436 48.7881
CA 36.5696 -1.84001 76.3776
CA 15.2975 -18.8576 49.1641
CA 0.82688 0.694137 57.2624
CA 34.0278 7.82241 74.7949
CA 50.3361 0.565444 42.8588
CA 12.0815 -5.32544 37.8907
CA 10.2448 -7.52805 33.6817
CA 17.5854 -10.3591 63.3074
CA 30.2999 5.6949 57.5994
CA 43.1263 -20.0877 51.5573
CA 20.9809 -24.7087 72.0708
CA 41.5559 4.71011 65.6781
CA 34.3322 -26.8483 40.0014
CA 26.7934 9.58121 44.2031
CA 20.0219 -25.923 43.4407
CA 24.8306 -23.595 70.1882
CA 18.5303 5.12707 13.8611
CA 30.3459 -15.0722 51.644
CA -21.843 -0.62002 50.2783
CA 23.4146 -32.8987 63.0953
CA -1.04004 -24.9259 70.0302
CA 40.8923 -22.7392 63.0148
CA 32.0041 2.34545 65.4451
CA 10.3291 -10.0768 37.0198
CA -1.18735 -30.2796 70.1134
CA 23.7204 -9.09582 65.0538
CA -1.56746 -1.62211 56.8841
CA 17.9264 -8.55425 40.6265
CA -1.70089 4.92867 49.8971
CA 49.238 1.23249 61.8186
CA 26.6227 -30.6568 64.4959
CA 16.5083 -23.3791 42.4885
CA -19.5358 -9.75609 42.3986
CA 39.4345 -14.2954 45.2883
CA 18.9405 -22.4491 43.8718
CA 56.0089 1.23854 39.7397
CA 22.3597 -20.1628 49.7735
CA 2.44979 1.73968 55.701
CA 32.1557 3.83507 71.6671
CA 7.47634 5.84573 67.8902
CA -5.76165 -23.1968 68.7679
CA 33.9562 3.05426 67.6822
CA 15.8548 -1.90271 60.9641
CA 10.4349 -23.0687 54.3823
CA 29.99 4.61749 40.6562
CA 25.9135 -22.1457 42.5364
CA 22.4492 15.83 36.048
CA 13.531 1.18274 36.74
CA 50.1973 -11.1334 54.7309
CA 22.1829 12.8855 67.4033
CA 33.7292 0.569616 72.8916
CA 43.8162 -17.195 51.6316
CA 31.0453 -3.66705 76.9863
CA 24.1544 -13.6089 77.6757
CA 31.9376 2.36449 44.3236
CA 30.9983 -19.4721 36.5222
CA 23.5715 20.4501 36.9087
CA 27.7034 -13.7666 34.7445
CA 13.0093 -8.46723 42.6534
CA 28.5283 5.95581 77.4625
CA 25.899 -3.02481 54.2418
CA 19.2879 -13.9106 57.2154
CA 10.0296 12.3591 16.4698
CA 12.9221 -1.19811 49.8951
CA 11.6227 -17.9726 42.7646
CA 39.1885 -23.9832 45.1837
CA 0.246375 -27.9696 66.3161
CA 20.2837 -19.1515 61.1741
CA 21.1305 -18.1215 46.7674
CA 7.90555 -10.2818 42.9445
CA 30.2 2.00979 75.64
CA 3.00223 -16.1438 65.6081
CA 18.8316 -5.80398 56.0291
CA 8.79428 13.0276 24.036
CA 20.088 10.841 30.2799
CA -13.4169 -13.3567 65.369
CA 7.45472 1.23831 62.0475
CA 17.8714 -13.0447 61.4322
CA 26.0561 7.56391 56.5521
CA 6.34054 -9.92129 47.9451
CA 37.9995 -9.47097 70.0794
CA 13.8205 -14.4762 46.6447
CA 36.6414 0.973826 42.0591
CA 27.5594 -20.7586 66.1448
CA 22.2037 -15.3128 46.8054
CA 32.8908 1.05209 62.1579
CA 13.9307 -17.0176 47.1285
CA 4.14908 6.28814 49.0398
CA 17.9749 7.28827 37.0521
CA 32.1558 -0.977144 62.151
CA 46.9968 -3.27122 41.6339
CA 2.49202 -21.7195 47.982
CA 6.15042 -23.2213 62.7139
CA -19.8826 -4.69762 56.879
CA 39.2057 8.62561 56.7319
CA 13.399 -13.6613 41.9811
CA 12.3458 1.45089 59.6567
CA 17.8271 7.50564 39.006
CA -13.94 -10.8573 60.178
CA 26.2087 11.13 66.4228
CA 19.9384 -14.1905 39.5626
CA 39.2389 -18.5922 57.8152
CA 3.3279 2.25085 58.799
CA 40.1917 -25.9969 46.8388
CA 10.1187 -9.55868 41.2316
CA 12.4528 -12.1732 43.8987
CA 22.3091 -20.9761 59.5684
CA 6.20142 -21.4618 63.4606
CA -19.5602 -1.03054 52.367
CA 18.7959 -32.018 66.4045
CA 30.6037 -18.5995 68.9802
CA 41.0589 -20.7184 59.9366
CA 40.8618 -16.8526 49.0681
CA 25.3301 -14.4628 62.6909
CA 27.3731 -8.92448 32.3648
CA 37.2575 -2.12588 42.2237
CA 7.6784 -2.5211 61.5562
CA 21.3537 -5.33674 64.6007
CA 22.4946 -27.8268 53.238
CA 22.5995 9.08266 42.1198
CA 11.6395 -25.3512 51.1951
CA 12.0998 -19.2697 44.1838
CA 13.6291 14.9338 19.1809
CA 13.1831 -24.8851 59.5599
CA 21.2048 -19.551 57.9528
CA 22.5209 -12.7344 60.9758
CA 24.3681 6.52838 38.3991
CA 9.63269 -31.0947 54.8884
CA -9.21148 -6.82154 62.8615
CA 7.91616 13.6869 31.4426
CA 5.16049 0.341122 42.9915
CA 42.5738 -14.1786 45.6903
CA 12.6538 -0.774731 39.2195
CA 19.9964 -11.781 62.1494
CA 5.06094 -21.7544 48.4628
CA 22.0555 -7.50132 24.7157
CA 30.6519 7.69056 79.9501
CA 24.8368 -27.1217 71.5032
CA 50.7818 -18.0963 47.9689
CA 11.0747 -2.23624 30.3473
CA 41.2376 -27.2462 59.7808
CA 51.9517 -11.5965 53.0086
CA 9.73908 -0.612159 58.2914
CA 22.3311 -28.909 48.6113
CA 16.3489 5.8941 35.4806
CA 27.0979 -4.96714 67.9004
CA 10.1406 10.6043 11.5729
CA 39.5295 -17.9805 65.4661
CA -1.97601 0.567708 63.5069
CA 41.3267 -2.01758 41.3266
CA 27.0386 0.326352 52.0918
CA 13.6301 -8.92535 54.7516
CA 6.09333 2.95292 33.2599
CA 14.5868 -11.1376 56.2724
CA 7.17548 -26.8171 49.534
CA 30.8209 5.26795 74.1999
CA 28.9486 -16.0511 67.7676
CA 28.3048 -13.8058 84.7434
CA 13.0011 3.56795 55.2715
CA 22.6053 12.7878 35.8785
CA 23.0171 15.5279 41.2044
CA 9.61816 2.0959 61.397
CA 5.15944 4.27828 45.2342
CA 22.4481 -21.9265 76.7927
CA 36.9038 -17.0559 51.605
CA 17.7538 -16.4548 58.797
CA 41.0873 4.08111 60.018
CA 34.9169 -20.5751 40.7388
CA 3.47502 -24.1387 44.6644
CA 25.1004 -11.7442 71.5551
CA 21.9963 -22.1654 33.6229
CA 6.95687 -25.5983 56.7618
CA 32.1533 -22.3875 42.2873
CA 42.8242 7.26977 65.1664
CA 11.5534 4.30367 65.6218
CA 19.7053 -21.7421 56.9754
CA 11.3426 7.37644 11.7695
CA 38.5605 -15.3633 57.5056
CA 24.6373 -17.3183 49.0412
CA 12.5296 -26.0403 54.53
CA -15.815 -8.60131 40.7417
CA 16.723 -19.3016 45.1544
CA 29.4703 -13.9402 50.1202
CA 12.4274 -20.8936 56.7093
CA 8.13911 -0.452476 73.0806
CA 23.4823 -16.0668 44.3011
CA 21.1 -22.6894 56.2815
CA 28.5469 -11.7555 56.42
CA 19.7369 -21.0604 28.7656
CA -5.04738 3.28092 53.8319
CA 32.3948 -5.97961 73.889
CA 25.6427 -6.65897 64.4055
CA 26.8642 5.91192 59.8798
CA 9.44615 15.962 16.5509
CA 7.63048 3.31087 64.2023
CA 29.1654 2.58942 62.6495
CA 28.0196 -17.3391 46.19
CA 22.6169 -33.8419 51.7739
CA 15.0862 9.7634 9.14064
CA 28.0764 -17.8967 64.5957
CA 53.2653 0.101344 38.0109
CA 28.4303 -25.8914 52.834
CA 38.889 -14.098 48.6632
CA 43.5206 0.587795 59.7158
CA 37.3243 -19.9636 62.2326
CA 39.131 -16.7182 50.0838
CA 13.6873 -19.0679 59.8971
CA 50.4944 -22.7786 50.3893
CA 25.3284 -16.2406 79.2867
CA 21.8358 -19.7666 63.6612
CA 11.8541 2.63562 47.2314
CA 38.4127 -17.7756 55.08
CA 14.1818 -22.89 55.602
CA 14.2312 -30.7013 67.2971
CA 49.0542 -17.226 52.0005
CA -15.171 -10.4732 57.2999
CA 34.9521 -0.747332 75.1639
CA 22.0617 -3.44434 60.2886
CA 21.9819 -30.0451 65.4039
CA 21.0368 -22.0373 48.2117
CA -2.40114 -26.7004 72.0471
CA 23.1407 -25.7031 66.6453
CA 17.006 -25.049 58.3587
CA -12.6391 -4.97856 38.5873
CA 8.81302 -3.53691 60.4385
CA -15.2621 -6.07714 56.1954
CA 11.8478 -17.0724 46.0195
CA 10.5835 5.03624 58.9666
CA 29.6512 9.95592 79.7299
CA 49.0366 -14.9353 58.1099
CA -2.71724 -19.8257 39.9784
CA 42.7889 -30.1803 51.3625
CA 24.636 2.46524 54.2859
CA -3.01909 1.28603 67.4214
CA 26.1065 -10.7333 74.305
CA 23.687 -6.04389 45.4816
CA 34.3857 -13.4128 58.9588
CA 22.5871 14.7064 69.0052
CA 42.1116 -1.38738 59.7794
CA 45.4461 -10.5182 47.2827
CA 34.1101 -14.9665 52.1852
CA -5.53963 0.484783 55.1303
CA -25.4106 -6.71037 53.444
CA 37.8367 7.46042 58.7869
CA 21.1309 -24.1961 49.5486
CA 23.1944 -16.0518 73.2679
CA 21.42 -13.1245 69.1808
CA 18.0157 -17.2091 69.8852
CA -21.3232 -6.24276 41.9274
CA 17.9207 -31.9088 52.8166
CA 25.129 -9.02193 72.0564
CA 54.2909 1.24781 35.8225
CA 41.1767 2.78998 69.4472
CA 29.8552 -18.3034 49.9644
CA 38.1864 -28.6918 36.2652
CA 23.559 -13.8236 36.5031
CA 2.91497 -18.3833 47.3979
CA 24.6929 -25.3865 50.0403
CA 38.5193 2.59601 68.0999
CA 30.206 0.0928213 66.6883
CA 34.971 10.2653 73.1224
CA 16.4134 13.7529 31.8093
CA 22.0138 -18.3902 75.0304
CA 23.8744 -9.1304 69.8157
CA 20.2883 -28.7904 58.7211
CA 39.7709 4.50191 41.9549
CA 42.8904 -3.45344 44.3109
CA 52.5243 -15.6495 55.497
CA 19.7604 -15.9744 66.6272
CA 27.1469 -1.58032 20.4758
CA 6.46136 -0.182784 44.9727
CA 22.7078 14.0506 39.539
CA 47.6211 -0.268956 42.6254
CA 12.0781 -23.9481 56.2577
CA 20.2243 -24.1576 60.1933
CA 15.9065 -23.58 56.28
CA 6.66684 -27.7151 57.2673
CA 12.8941 -21.6541 34.0539
CA 27.1074 7.65703 41.9302
CA 29.7075 -5.95205 24.3766
CA 9.36579 -18.864 47.1003
CA 39.5446 -15.2776 51.9204
CA 15.9033 7.31165 30.8416
CA 21.0859 -16.1529 78.9338
CA 20.7784 -19.377 28.5773
CA 46.2352 -15.2417 55.1632
CA 9.13036 -22.2266 52.8626
CA 19.838 -17.6999 71.6404
CA 37.432 -6.97093 35.5453
CA 37.3805 0.171162 40.5748
CA 46.2557 1.83267 65.5771
CA 37.0643 3.63642 43.9542
CA 5.60907 -23.8319 50.9849
CA 22.4723 -30.3592 50.3739
CA 16.3184 5.57587 68.4363
CA 16.0085 13.8901 18.8701
CA 13.8604 -22.7687 51.5452
CA 18.5896 -20.2922 40.7221
CA 6.78694 1.67685 70.5299
CA 27.2974 17.5377 44.1224
CA -12.7126 -11.9893 62.3237
CA 33.3238 -28.8932 38.2111
CA 35.701 4.82219 72.444
CA 29.3278 0.885424 53.0218
CA 25.6315 -14.1266 75.6144
CA 10.5352 -0.472356 47.6698
CA 24.2767 -20.4587 74.9797
CA 10.0947 -8.25557 51.3499
CA 13.3261 -1.92642 51.7504
CA 22.6159 -12.9274 52.1325
CA 23.3596 -10.8714 46.7918
CA 10.1601 8.56725 24.6921
CA 31.5498 -1.81902 73.8246
CA 41.5298 -0.18767 41.5263
CA 18.3664 -29.4717 53.4963
CA 4.31007 -26.0471 59.8206
CA 31.0265 -6.94398 23.3483
CA 21.7762 -16.5107 75.4792
CA 24.9787 17.2502 43.9851
CA 14.4055 -18.9436 34.6046
CA 40.7739 -3.14526 39.2083
CA 35.7955 -5.548 72.2286
CA -25.5333 -4.53868 48.0935
CA 23.1279 -16.7896 77.2603
CA 21.8384 -12.5288 75.2013
CA 28.4785 2.74334 77.8851
CA 14.945 -6.24782 53.6271
CA 31.2935 7.04434 58.7334
CA 1.99647 -4.20369 60.9871
CA 30.8229 -22.5802 39.8938
CA -4.23399 0.817341 60.0391
CA 43.2715 -22.4167 37.1601
CA 4.39468 -27.3554 47.3315
CA 22.4978 -13.5403 73.2105
CA 23.5371 -14.2983 49.7619
CA 3.38631 -3.36378 55.8607
CA 15.1595 11.2843 31.548
CA 7.59566 -8.90823 45.8448
CA 11.1647 -3.83275 39.1378
CA 18.8123 -25.547 60.6706
CA 38.7947 -26.9603 44.3538
CA 29.4857 -23.1786 34.7792
CA 13.7393 5.23168 29.6527
CA 15.287 -9.44419 52.3715
CA 23.1879 -7.87408 28.7397
CA -0.110281 -16.1791 43.3255
CA 25.9626 -12.7219 31.2708
CA 20.5668 16.0348 37.271
CA 9.11471 -21.1316 46.5437
CA 24.0809 -18.6576 77.7699
CA 5.22832 -25.8496 46.2151
CA 20.409 -6.35906 44.5118
CA 10.9725 16.4168 21.4716
CA 26.2162 -7.96696 67.3238
CA 24.4072 -31.6353 49.7735
CA 34.3593 -18.4219 71.6713
CA -24.575 -2.98901 43.6205
CA 37.8018 -0.0314014 43.582
CA 21.0091 12.4044 32.364
CA 52.9247 -9.57753 52.5635
CA 23.2501 -8.02257 22.7971
CA 29.8662 6.80349 67.4946
CA 25.9786 -28.3136 63.8325
CA 39.1727 -13.9526 55.1322
CA 26.7172 10.2697 81.4815
CA 32.6929 -17.3264 51.597
CA 17.0463 8.5222 13.1485
CA 36.2224 7.47721 47.7007
