489

CA 47.1145 6.43169 60.3431
CA 17.9031 -21.3293 56.4003
CA 24.9763 -10.8855 54.608
CA 25.3342 7.01739 43.6594
CA 12.0464 -19.4037 50.8171
CA 38.7199 -23.1322 41.3011
CA 13.8929 -2.48378 61.1455
CA 27.6508 14.2828 83.7225
CA 10.2281 18.3491 29.2117
CA 25.4011 -13.1251 73.4159
CA 22.5073 17.6951 35.5421
CA 24.6376 -26.228 61.9899
CA 46.8015 -18.6161 56.8013
CA 14.3648 -21.6207 57.7888
CA 3.72937 -26.2518 66.4819
CA 38.6402 -26.7518 41.7185
CA 55.4726 -1.26011 34.8684
CA 24.2098 -20.5943 47.1858
CA 20.9344 -28.3911 70.2477
CA 15.355 -18.0605 41.2592
CA 15.8786 -12.4554 38.5058
CA 32.3477 5.9977 65.4
CA 28.8514 -24.9903 68.294
CA 9.47584 -8.35633 54.3721
CA 23.5476 -19.5769 59.9771
CA 14.2572 3.00108 36.6808
CA 24.9416 -2.09542 64.0145
CA 26.0671 12.547 57.6006
CA 5.77483 1.19119 48.1367
CA 3.34306 -21.128 61.2607
CA 5.3402 10.0807 15.2946
CA 22.4494 -8.00382 62.5332
CA 40.7061 0.120832 39.3139
CA 19.713 15.7281 17.904
CA 27.0903 -24.9107 72.6289
CA 20.1316 7.62104 32.3773
CA 20.1548 -18.0079 28.5289
CA 11.6791 -31.2573 64.6019
CA 33.2562 -6.53882 70.9453
CA 9.8408 -2.66514 53.935
CA 39.7528 -9.85924 50.082
CA 30.6052 8.51227 67.2025
CA 17.0658 -25.4972 44.6395
CA 30.3937 -2.69049 73.4584
CA 49.0549 -12.8738 59.6288
CA -27.462 -3.14943 43.2928
CA 23.9938 -23.6705 33.7048
CA 22.7407 10.8894 67.4881
CA 38.7332 6.40212 62.4497
CA 39.8362 4.72684 61.9717
CA 39.5085 -0.471121 41.2005
CA 4.19656 -21.1722 63.263
CA 23.4409 -2.8847 21.1219
CA 42.1912 5.51326 61.3366
CA 37.8099 -11.3435 44.2579
CA 47.3343 -16.7327 52.2812
CA 12.534 6.27409 45.8061
CA 28.0264 -16.4709 49.2764
CA 9.20914 -7.29998 43.7562
CA 19.6594 -12.6604 62.3885
CA -10.907 -8.38826 61.3698
CA 11.6126 -19.2625 56.4796
CA 21.2068 -12.8889 57.3937
CA -16.3656 -8.34628 60.5613
CA 24.3856 -17.8108 69.2502
CA 35.9671 -29.4011 35.5424
CA 24.1972 -12.0099 52.4915
CA 28.2151 -19.1897 77.7626
CA 42.2307 -18.1976 42.1898
CA 18.696 -23.0962 29.6894
CA 23.6755 -10.2386 53.1627
CA -6.46813 -5.43841 64.1476
CA -21.2669 -4.90488 52.3546
CA -4.05919 -3.37749 66.7547
CA 13.9892 0.339578 40.7537
CA 40.231 -24.2175 37.0859
CA 20.9194 -21.3048 32.1168
CA 26.0642 -12.6838 51.684
CA 31.9341 -27.3584 37.526
CA 10.5638 11.4528 28.8043
CA 24.9336 -8.10047 21.974
CA 43.5178 5.61725 65.4325
CA 4.94021 0.202059 54.7095
CA 26.316 -16.1183 69.3668
CA 3.20141 -12.8486 47.2301
CA 23.7331 -11.3866 73.8117
CA 11.2261 13.8003 20.5541
CA 26.9679 -12.0685 49.7267
CA 17.516 -14.4574 36.263
CA 14.0478 -24.827 53.7868
CA 24.6348 -8.85507 48.7989
CA 19.8957 -7.90029 25.7179
CA 14.8515 -3.17029 58.2157
CA 28.3768 -3.78604 64.3337
CA 11.446 -3.85707 43.0132
CA 33.9049 -8.66672 69.9815
CA 20.0947 -21.7795 76.7209
CA 29.4804 -15.6733 81.889
CA 45.8395 -15.8637 57.5121
CA 13.2126 6.43182 7.7227
CA 29.6795 -13.0118 37.9776
CA 4.34118 2.24019 45.1097
CA 17.3427 7.87773 10.0129
CA 19.5796 -23.6126 56.6591
CA 28.4847 -24.2949 41.3176
CA 18.0158 -21.0071 58.9554
CA 40.5146 -16.7835 59.6849
CA 22.2816 -14.5325 59.1841
CA -0.567041 2.74001 51.649
CA 21.5981 -5.57818 56.987
CA 32.952 7.40702 66.5758
CA 20.0996 -19.384 25.5942
CA 20.9549 -23.6527 34.6855
CA 5.5287 -27.0436 58.6428
CA 18.8932 -16.9784 35.5492
CA 49.6877 -12.8812 53.9811
CA 22.4385 -18.594 61.3279
CA 21.1021 -27.8024 62.821
CA 37.4993 7.02762 60.6721
CA 53.1504 4.16956 36.7972
CA 22.6035 1.26169 43.7286
CA 31.2658 -20.335 80.4548
CA 15.2975 -18.8576 49.1641
CA 21.9911 8.89512 35.3235
CA 10.4806 -15.8471 45.8319
CA 50.3361 0.565444 42.8588
CA 13.9193 -23.0757 43.0604
CA 19.3583 -17.0613 80.6309
CA 17.5854 -10.3591 63.3074
CA 30.2999 5.6949 57.5994
CA 43.1263 -20.0877 51.5573
CA 13.543 -9.54803 46.7744
CA 24.63 -13.9958 44.5592
CA 26.4584 -24.4138 78.8601
CA 28.3349 -14.998 70.9145
CA 34.0448 9.06391 59.5425
CA 24.8306 -23.595 70.1882
CA 50.3945 -10.5645 56.6607
CA 30.3459 -15.0722 51.644
CA 41.7 -23.3926 38.7601
CA 23.4146 -32.8987 63.0953
CA -1.04004 -24.9259 70.0302
CA 19.9795 -23.9953 53.3278
CA 23.7031 -22.4159 32.2801
CA 10.3291 -10.0768 37.0198
CA 17.2947 -21.4237 49.0274
CA 9.09434 -22.848 57.9121
CA 25.2873 -0.276586 63.8702
CA 33.3899 -25.2644 57.9004
CA 26.628 5.915 41.8344
CA 22.4056 -21.2792 35.5554
CA 26.6227 -30.6568 64.4959
CA 38.8692 -10.0198 39.6396
CA -19.5358 -9.75609 42.3986
CA 25.7363 -9.12031 20.4935
CA 19.8883 -13.8625 78.7939
CA 42.2072 -6.2633 39.1148
CA 39.8491 -13.6276 60.0212
CA 2.44979 1.73968 55.701
CA 22.6963 19.9331 36.1695
CA 7.47634 5.84573 67.8902
CA 15.763 1.17362 43.3231
CA 31.0655 -17.7164 80.6198
CA 15.8548 -1.90271 60.9641
CA 27.6431 6.43411 64.9343
CA 28.7569 -27.6677 42.8059
CA 26.2508 6.85834 82.9278
CA 45.4213 -19.9096 49.8373
CA 12.7086 4.45279 57.8047
CA 13.8956 14.3332 28.2617
CA 22.1829 12.8855 67.4033
CA 33.7292 0.569616 72.8916
CA 25.3847 -8.0621 73.7986
CA 31.0453 -3.66705 76.9863
CA 29.2507 -18.0457 50.645
CA 34.0591 -8.9056 74.0284
CA 30.9983 -19.4721 36.5222
CA 15.9695 -34.3115 52.3555
CA 27.7034 -13.7666 34.7445
CA 12.4607 -21.6182 38.1541
CA 28.5283 5.95581 77.4625
CA 17.4084 15.479 21.2151
CA 10.6463 -29.5134 49.7073
CA 10.0296 12.3591 16.4698
CA 25.958 -13.3291 59.7134
CA 11.6227 -17.9726 42.7646
CA 25.9558 -11.3831 69.7551
CA 23.9271 -36.4233 63.0612
CA 2.8062 -20.5203 56.9875
CA 22.2061 -24.1409 71.1572
CA 7.90555 -10.2818 42.9445
CA 8.96981 10.0793 17.8537
CA 3.00223 -16.1438 65.6081
CA 18.8316 -5.80398 56.0291
CA 8.79428 13.0276 24.036
CA 23.169 6.7348 43.5873
CA 38.8984 -12.7863 44.4305
CA 31.4205 -1.98218 53.5452
CA 17.8714 -13.0447 61.4322
CA 26.0561 7.56391 56.5521
CA 6.34054 -9.92129 47.9451
CA 37.9995 -9.47097 70.0794
CA 25.1324 8.14393 81.3414
CA 33.2893 -4.63759 57.0467
CA 17.7045 -18.1503 63.1083
CA 22.2037 -15.3128 46.8054
CA 32.8908 1.05209 62.1579
CA 48.5096 -10.0655 50.4811
CA 10.6262 -36.1087 65.3048
CA 5.26913 -3.74359 44.079
CA 47.0477 2.83066 62.883
CA 46.9968 -3.27122 41.6339
CA 24.0496 -7.948 59.8036
CA 6.15042 -23.2213 62.7139
CA -19.8826 -4.69762 56.879
CA 39.2057 8.62561 56.7319
CA 12.4627 -17.4389 34.8597
CA 12.3458 1.45089 59.6567
CA 17.8271 7.50564 39.006
CA -13.94 -10.8573 60.178
CA 26.2087 11.13 66.4228
CA 18.6144 -17.2966 50.5826
CA 15.8778 -15.3133 49.1991
CA 3.3279 2.25085 58.799
CA 21.0833 2.72646 43.2896
CA 10.1187 -9.55868 41.2316
CA 12.4528 -12.1732 43.8987
CA 26.6146 -19.8683 54.0766
CA 18.6724 -26.8376 56.249
CA 11.3883 -1.01911 45.409
CA 18.7959 -32.018 66.4045
CA 30.6037 -18.5995 68.9802
CA 39.629 -20.8184 66.7018
CA 25.4881 4.80579 42.7286
CA 25.3301 -14.4628 62.6909
CA 27.3731 -8.92448 32.3648
CA 5.68503 -20.1302 62.7949
CA 28.1492 -5.38826 22.6741
CA 18.6728 -9.59583 58.2647
CA 22.4946 -27.8268 53.238
CA 22.5995 9.08266 42.1198
CA 11.6395 -25.3512 51.1951
CA 12.3924 -16.3935 44.1927
CA 13.6291 14.9338 19.1809
CA 26.3232 -17.7838 36.2563
CA 17.3491 -13.9198 63.5858
CA 14.4706 -16.3253 41.0453
CA 25.2329 -9.81036 51.7987
CA 41.3346 -21.8648 45.2383
CA -9.21148 -6.82154 62.8615
CA 9.68979 -5.19705 33.0271
CA 5.16049 0.341122 42.9915
CA 42.5738 -14.1786 45.6903
CA -0.704899 0.310083 53.0652
CA 14.1361 -21.3493 49.4265
CA 5.06094 -21.7544 48.4628
CA 16.007 -15.7403 59.8009
CA 22.9895 -21.5667 79.6894
CA 39.2154 -11.5598 46.1191
CA 35.7922 -5.5956 41.2715
CA 11.0747 -2.23624 30.3473
CA 19.5129 3.81399 39.876
CA 19.0255 -16.3281 74.0385
CA 37.0645 -22.1662 67.0497
CA 22.3311 -28.909 48.6113
CA 43.6691 -16.1514 52.5627
CA 30.135 -13.1874 73.1221
CA 10.1406 10.6043 11.5729
CA 39.5295 -17.9805 65.4661
CA -1.97601 0.567708 63.5069
CA 41.3267 -2.01758 41.3266
CA 27.9585 -16.0412 51.8548
CA 13.6301 -8.92535 54.7516
CA 20.1698 -19.0448 81.6301
CA 8.80934 17.2579 29.4411
CA 44.9701 -0.349715 41.4913
CA 35.8096 -11.3526 43.7597
CA 28.9486 -16.0511 67.7676
CA 28.3048 -13.8058 84.7434
CA 13.0011 3.56795 55.2715
CA 22.6053 12.7878 35.8785
CA 23.0171 15.5279 41.2044
CA 29.5179 -20.8168 39.5439
CA 16.6394 -10.2371 46.8705
CA 37.2482 -9.38089 40.1244
CA 47.4935 -0.267294 41.0294
CA 17.7538 -16.4548 58.797
CA 46.1553 -18.7135 51.4954
CA 30.3947 -11.8762 54.9507
CA 26.9015 5.73681 46.4691
CA 27.4519 -17.1448 73.9063
CA 22.6124 -18.7388 76.7626
CA 25.4808 10.5355 69.7146
CA 32.1533 -22.3875 42.2873
CA 42.8242 7.26977 65.1664
CA 11.5534 4.30367 65.6218
CA 49.4715 -19.9638 52.8592
CA 11.3426 7.37644 11.7695
CA 38.5605 -15.3633 57.5056
CA 1.40966 -23.1971 53.7298
CA 25.9981 -17.1332 72.7616
CA -15.815 -8.60131 40.7417
CA 21.1064 -7.14277 54.8122
CA 22.8602 10.4762 58.8218
CA 37.1304 -20.3735 64.6077
CA 17.2489 -17.1733 56.4883
CA 23.4823 -16.0668 44.3011
CA 33.9389 8.36893 70.7118
CA 28.5469 -11.7555 56.42
CA 19.7369 -21.0604 28.7656
CA -5.04738 3.28092 53.8319
CA 32.3948 -5.97961 73.889
CA 25.6427 -6.65897 64.4055
CA 28.8038 9.12671 73.1878
CA 9.44615 15.962 16.5509
CA 22.7555 0.790162 63.5917
CA 29.1654 2.58942 62.6495
CA 12.5072 -5.40485 55.2521
CA 22.6169 -33.8419 51.7739
CA 15.0862 9.7634 9.14064
CA 22.141 4.00372 32.7687
CA 53.2653 0.101344 38.0109
CA 21.9679 -16.8264 32.7101
CA 21.0255 -12.1281 41.3092
CA 43.5206 0.587795 59.7158
CA 37.3243 -19.9636 62.2326
CA 20.3459 -20.9825 24.2586
CA 16.1482 -23.692 57.0406
CA 23.0426 10.5176 63.7469
CA 19.7231 -20.1888 63.0623
CA 21.8358 -19.7666 63.6612
CA 11.8541 2.63562 47.2314
CA 33.6974 10.1817 73.7459
CA 25.5576 -16.6453 56.4615
CA 14.2312 -30.7013 67.2971
CA 49.0542 -17.226 52.0005
CA -15.171 -10.4732 57.2999
CA 34.9521 -0.747332 75.1639
CA 39.6695 10.2727 55.8787
CA 21.9819 -30.0451 65.4039
CA 20.2329 -33.3466 53.3679
CA 35.8926 -14.0899 53.986
CA 23.1407 -25.7031 66.6453
CA 24.7975 -3.84321 66.444
CA 51.2568 -11.364 54.4736
CA 8.81302 -3.53691 60.4385
CA -15.2621 -6.07714 56.1954
CA 11.8478 -17.0724 46.0195
CA 11.852 -33.8771 65.5616
CA 29.6512 9.95592 79.7299
CA 49.0366 -14.9353 58.1099
CA -2.71724 -19.8257 39.9784
CA -3.79939 1.51207 52.8029
CA 24.636 2.46524 54.2859
CA -3.01909 1.28603 67.4214
CA 26.1065 -10.7333 74.305
CA 23.687 -6.04389 45.4816
CA 25.5898 -5.15002 60.1498
CA 9.03803 -19.3485 41.512
CA 27.2602 -21.9136 65.186
CA 35.5055 -23.4488 62.1708
CA 8.55586 -28.1445 61.0171
CA -5.53963 0.484783 55.1303
CA -25.4106 -6.71037 53.444
CA 21.7634 -21.7846 70.9089
CA 22.6561 6.28829 31.8109
CA 23.1944 -16.0518 73.2679
CA 31.439 -0.94937 51.973
CA 48.0403 -20.9832 54.4804
CA -21.3232 -6.24276 41.9274
CA 17.9207 -31.9088 52.8166
CA 31.6067 -14.1312 87.3958
CA 22.8027 -25.5053 76.0322
CA 26.6428 -12.2755 76.0444
CA 25.5203 10.2 64.1495
CA -5.24703 3.88694 60.5768
CA 17.3946 -21.7057 34.3635
CA 19.684 -5.48177 58.2638
CA 15.4573 7.75836 55.8902
CA 12.5842 -11.3044 47.5591
CA 30.206 0.0928213 66.6883
CA 9.33848 -14.4625 44.6277
CA 44.6649 5.28541 59.4061
CA 16.3189 -6.60345 66.2097
CA 24.0671 -15.1623 59.9008
CA 20.9545 -17.4163 44.1004
CA 27.2937 -14.4695 29.8051
CA 9.75223 -10.2315 50.6155
CA 52.5243 -15.6495 55.497
CA 28.0539 -17.2415 47.0591
CA 27.1469 -1.58032 20.4758
CA 6.46136 -0.182784 44.9727
CA 22.7078 14.0506 39.539
CA 19.9298 11.9939 34.1136
CA 40.7574 9.92197 66.5393
CA 20.2243 -24.1576 60.1933
CA 27.5209 -20.0022 50.1578
CA 45.7879 3.44041 61.7392
CA 9.67216 -29.5177 47.2907
CA 27.1074 7.65703 41.9302
CA 25.2195 -20.986 33.3735
CA 10.6333 -22.4641 59.3559
CA 39.5446 -15.2776 51.9204
CA 15.9033 7.31165 30.8416
CA 2.31702 -18.4108 55.3048
CA 11.2793 -7.04174 48.7728
CA 23.8965 -11.9817 57.342
CA 25.0134 -12.6579 61.4656
CA 32.1487 7.86849 73.8562
CA 0.896724 -25.1975 66.0366
CA 20.3325 -17.5622 23.8948
CA 46.2557 1.83267 65.5771
CA 37.0643 3.63642 43.9542
CA 5.60907 -23.8319 50.9849
CA 54.2526 -0.126842 42.3173
CA -2.70416 -0.467593 59.1553
CA 21.1417 -22.9915 73.294
CA 13.8604 -22.7687 51.5452
CA 20.2729 -7.52087 22.2736
CA 6.78694 1.67685 70.5299
CA -16.2923 -6.50883 44.5275
CA 21.9461 -5.67106 60.5895
CA 15.2469 2.56575 62.8262
CA 14.7604 -23.3338 40.6005
CA 29.3278 0.885424 53.0218
CA 39.6841 -7.32952 36.3683
CA 10.3427 -2.85386 49.6099
CA 24.2767 -20.4587 74.9797
CA 10.0947 -8.25557 51.3499
CA 32.9249 6.41164 78.0129
CA 22.6159 -12.9274 52.1325
CA 23.3596 -10.8714 46.7918
CA 26.8588 11.9622 69.1072
CA 26.5755 -9.96704 68.6433
CA 32.2939 11.0359 74.4981
CA 18.3664 -29.4717 53.4963
CA 20.9627 -15.6046 69.2022
CA 22.2424 -20.4436 49.1683
CA 21.7762 -16.5107 75.4792
CA 22.677 -17.0662 80.7482
CA 29.5207 -12.4166 82.8436
CA 4.95579 -26.2282 70.3598
CA 4.12917 3.58571 57.6268
CA -25.5333 -4.53868 48.0935
CA 30.4566 -14.1058 44.2603
CA 27.198 -21.6932 49.6228
CA 17.7539 4.70907 42.6952
CA 18.7103 -19.8498 49.7287
CA 12.8181 15.1439 31.2274
CA 40.1842 -4.46692 40.5271
CA 31.2008 3.3394 73.7555
CA -4.23399 0.817341 60.0391
CA 22.3587 -10.4662 59.1005
CA 28.5961 -7.09785 72.3756
CA 6.64457 -19.0039 46.6025
CA 23.5371 -14.2983 49.7619
CA 32.1583 -18.0719 45.467
CA 15.1595 11.2843 31.548
CA 7.59566 -8.90823 45.8448
CA 27.8235 -13.6385 43.4281
CA 18.8123 -25.547 60.6706
CA 27.7732 -15.9861 83.9236
CA -2.19584 0.0022895 61.5398
CA 13.7393 5.23168 29.6527
CA 25.0647 -14.5468 48.1448
CA 23.1879 -7.87408 28.7397
CA -0.110281 -16.1791 43.3255
CA 18.2575 -23.6815 33.55
CA 20.5668 16.0348 37.271
CA 37.0559 -26.4637 34.5417
CA -0.0194558 -16.9139 41.2004
CA 20.7 -25.8782 69.7117
CA 12.8889 2.238 28.317
CA 30.8277 -24.9683 74.6936
CA -5.25666 0.939463 51.2805
CA 33.3073 3.10818 64.8239
CA 29.3577 -20.0409 42.8816
CA -24.575 -2.98901 43.6205
CA -1.21018 -12.6494 43.9265
CA 17.602 -27.174 58.8701
CA 24.0932 -16.2109 34.5162
CA 13.5457 -15.2199 43.2668
CA 21.6418 -13.7914 40.0085
CA 25.9786 -28.3136 63.8325
CA 11.7008 -3.63864 53.7771
CA 26.7172 10.2697 81.4815
CA 32.6929 -17.3264 51.597
CA 17.0463 8.5222 13.1485
CA 7.51768 -2.00221 39.8732
