489

CA -6.15443 -25.3661 75.9319
CA 14.4267 0.669263 73.4312
CA 13.1697 4.2024 54.7227
CA -2.46034 4.16083 48.4254
CA 0.353487 19.1836 36.9815
CA -6.06069 7.58997 79.7582
CA 2.20144 -7.7436 53.3778
CA -9.746 -0.346464 43.2894
CA 21.0754 -13.9879 53.7473
CA 9.68568 -8.96742 72.5061
CA -3.88995 -13.8197 39.4266
CA 3.4105 10.5694 46.1019
CA 11.7895 4.48125 37.3358
CA -4.27148 25.7449 36.9183
CA 17.2026 7.30517 61.1375
CA 9.44954 10.6214 41.6595
CA 0.0615258 41.3106 57.8285
CA 11.7786 -8.71491 72.8117
CA 19.4009 22.5132 35.6085
CA 31.1042 -16.2372 49.9575
CA 29.4731 -12.6658 50.453
CA 20.6514 -12.3749 48.5289
CA 28.7117 -8.09924 50.8863
CA 7.71674 -15.9772 57.6285
CA 9.56374 -8.42775 68.5601
CA 23.0585 -5.30673 57.3894
CA -29.1401 0.919056 61.143
CA 19.0064 0.469321 75.7299
CA 4.71346 27.1088 37.8537
CA 17.0933 -19.156 57.9051
CA 3.73523 22.6462 31.3675
CA 6.09142 -2.02374 62.2334
CA -6.58319 26.0094 74.4468
CA 27.8282 2.4193 68.2992
CA -1.34467 8.5509 38.4716
CA 5.50062 -18.1479 57.1954
CA 12.0249 -12.8636 29.4267
CA 12.8142 13.6631 23.0946
CA 4.07658 26.893 40.6015
CA 18.9151 -0.019159 67.8732
CA -23.1329 -13.699 40.5662
CA 11.7281 -0.219671 70.0904
CA -20.0087 -14.0834 27.4639
CA -17.9918 -9.22653 41.6039
CA 20.6384 -29.1253 74.4588
CA 7.17627 29.6609 38.1778
CA 14.791 -0.534122 68.8318
CA 26.9599 -18.4148 50.3077
CA 18.4751 -13.5603 67.2454
CA 31.9448 -6.88638 50.738
CA -2.59085 -12.8723 49.613
CA 14.4272 14.0582 22.365
CA 1.79425 30.1154 40.648
CA -20.4766 24.9743 41.6679
CA 18.4277 -4.59849 65.9532
CA 24.9549 -6.07679 52.6095
CA 10.9348 19.5425 28.4551
CA 14.239 11.3907 42.4265
CA -5.19302 -10.3926 35.6223
CA -18.2258 -15.6427 24.8155
CA -8.28335 8.08628 80.1166
CA 0.0605169 -2.84411 42.9231
CA 8.59254 20.5733 31.1262
CA 14.7035 16.0971 28.32
CA -20.2584 10.9889 50.2365
CA -7.90257 -14.0074 36.2243
CA 21.1983 -26.8036 77.107
CA 15.0473 -3.94529 41.6513
CA -17.841 -25.1347 32.6262
CA 17.2091 0.740059 27.9616
CA 39.8367 -0.802614 49.1259
CA 24.3088 -15.9844 57.2823
CA 4.07963 -3.0766 60.5316
CA -5.74585 7.93311 46.0657
CA -29.4444 -10.799 59.0735
CA -26.6262 -17.1752 63.6409
CA -5.48078 34.4236 67.9512
CA 2.7073 5.86551 44.4603
CA 18.3908 21.5548 38.9701
CA -29.3513 -1.60431 63.2196
CA -18.2051 -17.84 34.6813
CA 10.6869 20.7769 31.0521
CA -16.9672 -13.8527 44.4458
CA 41.0527 -15.3215 55.7368
CA 17.8324 -27.3538 73.9043
CA 2.28905 9.80183 47.6914
CA 7.32937 3.6625 47.1781
CA -19.2502 30.612 40.615
CA 20.6522 2.25576 68.7272
CA -10.0517 4.91809 43.1389
CA -2.83629 16.363 88.8671
CA -29.102 2.97976 50.8721
CA -5.81792 11.7343 47.0618
CA -34.5249 7.18194 58.2745
CA -2.62788 -1.39035 41.4016
CA 22.5191 -1.56162 66.113
CA 6.26137 -5.64089 49.9108
CA 20.8262 0.0750422 73.0053
CA 14.0578 11.6548 18.4402
CA -4.13337 27.9261 50.8508
CA -35.988 7.86626 56.3407
CA -17.643 -4.24272 84.5842
CA 0.254232 11.0216 40.0946
CA 0.216238 5.30879 46.992
CA 0.519341 43.4566 57.8424
CA 18.5478 -6.06606 57.4371
CA 36.1333 -4.82643 57.4969
CA -0.916554 17.4576 46.5396
CA 2.75038 -14.9534 45.3484
CA 8.47706 -24.5913 34.7871
CA 2.99859 3.45182 44.3637
CA -15.4143 -11.1509 43.0096
CA -6.22253 -15.3958 36.8479
CA 17.515 0.263429 65.584
CA 5.77311 6.67698 29.2217
CA -1.63762 4.85017 45.0394
CA 6.39605 -19.3306 64.9435
CA -0.15958 1.17 50.8333
CA 4.48778 -7.14024 51.3881
CA 24.0906 3.37527 43.7541
CA 13.0858 18.9479 43.1929
CA -6.90121 -26.1855 79.2418
CA 5.76715 -8.36693 49.8677
CA 23.2654 -8.9889 66.2519
CA 7.5955 21.4911 47.3127
CA 22.3737 -0.0183733 67.5571
CA 22.718 -28.3994 73.2232
CA -5.08499 21.8146 76.3429
CA 31.8029 -6.27328 70.4176
CA -1.47344 14.7635 46.3366
CA 23.6945 -11.5615 54.9191
CA 6.70989 19.6358 29.3823
CA 4.73537 20.9887 29.2958
CA 3.71117 -19.7517 66.5286
CA 3.95226 14.0736 20.7283
CA 9.60937 13.0601 24.9264
CA 24.9578 1.61452 68.5739
CA 0.732791 45.7762 57.86
CA -5.85563 30.7415 70.8105
CA -9.60561 14.0166 33.4397
CA 18.5126 13.9954 14.0869
CA -4.92092 -22.3638 29.4883
CA 1.30493 9.93566 43.1892
CA 4.16746 4.19096 49.7348
CA 36.4343 -14.9173 59.372
CA 0.0262614 -18.5056 42.0665
CA -19.1692 -23.5084 27.9931
CA 9.64026 12.6772 45.14
CA 26.4711 -10.068 54.949
CA 27.1187 4.62922 67.8647
CA -9.57232 8.61909 78.7202
CA 2.30614 17.1352 36.8508
CA 41.2713 -6.02856 67.1889
CA 16.5728 13.8002 16.8586
CA 20.5544 5.52394 44.7915
CA 0.512304 11.5836 46.6631
CA 28.4364 -4.76801 35.4928
CA 36.1995 -7.93738 60.8339
CA 14.3798 1.47047 54.2785
CA 24.1716 1.78564 20.3131
CA -1.14356 14.3093 23.0654
CA 22.9382 1.1557 70.6884
CA 18.2254 -8.40949 70.9646
CA -16.5397 -26.8475 29.1179
CA 15.0444 13.3102 29.5079
CA 7.59665 18.5253 26.891
CA 11.0116 -1.6112 79.5773
CA 33.1007 -10.7431 70.1291
CA -1.80326 45.5876 59.1255
CA 5.9747 11.2388 44.1631
CA 13.4483 2.6998 52.3418
CA 20.0458 4.66681 41.4861
CA 2.44424 -13.257 54.4664
CA 10.1448 -9.51486 69.8796
CA -1.51812 13.175 47.3379
CA -4.19589 16.4978 91.4057
CA 9.86961 11.286 20.2745
CA 21.5192 0.454443 69.4383
CA -31.579 -3.16542 63.2831
CA -10.6566 7.33609 37
CA 11.7774 9.21062 39.8531
CA 7.92006 11.7914 44.4044
CA 30.0108 -13.2926 54.8996
CA -19.7464 16.2046 48.8814
CA 17.7222 13.0946 18.4342
CA 11.9274 7.01022 21.3522
CA 7.17075 15.2499 18.0833
CA 7.82654 -2.62366 43.3303
CA 34.8549 -7.2601 72.9334
CA 11.1602 -19.0886 59.6963
CA 16.7385 -6.00585 68.4361
CA -20.8055 -12.3447 41.6041
CA 35.765 17.9859 55.6899
CA 3.64482 34.6392 56.1928
CA 29.5681 -14.3788 49.5189
CA 34.4348 -7.12553 68.9643
CA 22.2427 -3.57891 44.1645
CA 11.2239 -10.6684 67.5702
CA 28.7499 -11.7956 67.1422
CA 31.677 -9.08617 51.1246
CA 4.87655 8.88468 45.4071
CA -4.68433 -26.2335 30.557
CA 16.2361 11.4322 23.1847
CA -6.40934 6.28953 77.7763
CA -13.5809 3.09445 57.7979
CA 10.3677 13.539 41.7459
CA -7.63335 -18.6272 57.1168
CA 8.50956 9.08332 41.8436
CA -17.1333 -27.0418 26.0954
CA -9.60462 -1.97869 40.5606
CA -17.9905 -13.3995 46.7747
CA -16.1364 -6.40303 85.4855
CA 5.97457 -1.38107 50.5299
CA -8.00211 8.72281 40.4983
CA -4.31897 9.97263 45.6078
CA -4.03169 18.3491 90.5397
CA 12.8135 3.72749 47.4001
CA -9.9223 6.9828 82.6104
CA 9.03434 -5.03164 23.2032
CA 30.0951 -13.5425 47.9137
CA -2.21088 6.28189 80.098
CA 1.43831 33.7694 55.3152
CA 34.1039 -13.5918 47.8372
CA 20.0165 -30.1786 71.4468
CA 43.7102 -4.55776 66.8845
CA 15.4915 -11.0758 30.713
CA -31.5988 6.73854 53.5412
CA 3.51835 40.9207 53.9068
CA 16.2458 -15.6004 53.1687
CA -5.30392 -24.4502 74.1098
CA 2.77535 15.2144 45.3267
CA -27.7954 -13.7376 57.5665
CA -23.3814 -15.4733 38.5311
CA 1.90016 11.5341 44.1909
CA -32.9718 11.0736 60.8873
CA 15.8647 -16.4949 34.3843
CA -1.08138 20.4788 37.349
CA -5.77519 30.5313 78.517
CA 21.6785 -5.64377 64.8628
CA 6.65798 7.54437 70.5862
CA -14.2592 -27.5626 37.5746
CA 4.40458 20.1162 45.8045
CA 14.2078 -9.42391 71.3678
CA 4.75729 38.8241 52.0807
CA -12.169 3.12088 45.1658
CA -19.2573 25.8814 40.0694
CA -5.46167 22.7554 37.2753
CA -11.381 1.112 44.1462
CA -31.213 13.5968 51.5434
CA 2.93791 -19.7751 63.7826
CA -16.072 -23.7213 32.6097
CA 18.42 5.48307 56.5418
CA 3.62766 44.6858 54.6404
CA -4.54279 2.87075 43.406
CA 1.60802 -1.12095 45.1155
CA 25.2248 -8.49641 73.2779
CA -34.8011 13.2876 53.9464
CA -23.8709 -15.4247 44.4046
CA 28.1986 -12.5975 64.2889
CA 2.28937 14.6022 18.6555
CA 12.6073 1.9439 70.4455
CA 10.3537 -24.7485 21.2699
CA -5.4357 17.2167 94.8136
CA 17.4027 11.3678 16.1953
CA -0.599056 27.4712 52.603
CA 4.90402 10.0829 29.1767
CA -1.27547 20.4372 42.9892
CA -1.5816 35.0508 51.8464
CA -0.152141 -3.01674 45.314
CA 6.17761 -4.73009 52.4779
CA 6.92331 3.359 34.3559
CA -6.19085 -12.6634 41.8588
CA 1.75295 7.29956 41.9198
CA 3.25465 8.00729 39.9634
CA 20.9089 -15.8347 55.8765
CA -15.6381 -17.9577 36.0079
CA 6.68753 12.3887 18.0758
CA 9.5454 -11.7231 71.573
CA -3.30033 3.98232 78.4082
CA 18.9444 3.46081 62.1813
CA 20.1886 -7.39236 48.2969
CA -30.8991 12.1859 55.2945
CA 5.8909 -13.1233 54.998
CA -0.552704 19.193 45.3774
CA 17.4538 -4.98711 74.0593
CA 8.69 6.29882 72.5871
CA 10.7979 -14.6327 59.1669
CA 5.75671 -17.0763 63.9775
CA 11.0911 0.991802 40.8813
CA 13.4947 8.22421 57.8849
CA 17.4304 1.36084 48.115
CA 15.8599 4.69702 37.1546
CA 30.0648 2.61356 35.0367
CA 17.8723 1.06242 77.1905
CA 20.4345 -11.8122 62.3861
CA 26.1889 -3.63184 39.832
CA 18.5908 -26.6007 71.6104
CA 15.9987 -4.05974 63.2469
CA 0.363891 5.69218 49.6083
CA 15.9874 -10.5889 65.4628
CA 14.2833 1.73734 69.3406
CA 4.51855 24.8941 42.9746
CA 13.0499 4.46301 57.9177
CA -8.63498 0.310726 41.6757
CA -0.614826 5.55341 41.7655
CA 19.8235 -1.82407 60.8511
CA 31.2166 1.10709 37.3858
CA 8.45824 6.89502 39.6496
CA 14.5511 12.2641 15.981
CA 8.899 -20.6747 33.8069
CA 19.1328 19.7165 36.3647
CA 30.8428 -4.83382 61.2902
CA 11.7796 -8.1829 64.0746
CA 29.2198 -17.2353 52.2843
CA 27.3207 -9.90599 51.1407
CA 1.68582 31.3663 53.6348
CA -32.3323 6.24664 59.8089
CA -7.86591 -28.2469 71.625
CA -7.04275 -12.8834 68.7981
CA 25.3535 -14.1757 52.4333
CA 2.51462 39.6951 50.7488
CA 33.1096 -9.75377 47.848
CA 23.8803 2.62871 67.4775
CA 5.88034 -17.1471 32.5644
CA -14.3219 -19.1272 37.4684
CA 15.4769 1.15278 67.6478
CA 7.67054 -12.6531 58.3582
CA 27.0598 3.12989 71.5965
CA 20.0937 -25.4899 75.2696
CA -4.72348 -5.13759 34.9571
CA 20.3846 -29.7666 80.4138
CA 27.4167 -12.3405 56.8016
CA 33.9974 -7.71822 43.4119
CA -4.55996 -5.88356 69.0252
CA -15.5384 0.491333 46.5186
CA -5.75099 -33.6292 32.5245
CA 16.0469 -0.59629 54.6707
CA 13.2405 -6.72547 67.8744
CA 18.7159 -12.2247 56.9114
CA -34.5468 15.0822 51.7325
CA 15.6201 3.09697 38.6588
CA 7.99983 14.6332 25.7255
CA -4.28583 26.9931 75.4657
CA 19.5058 -3.17911 40.5429
CA 22.7412 -12.914 56.8471
CA 16.7703 -5.3095 40.624
CA 9.53347 6.8616 67.8027
CA 19.1178 -5.51325 45.2668
CA 6.05673 23.2164 50.0119
CA 33.3183 -9.43545 74.9964
CA 7.44371 18.5512 24.9364
CA -4.45896 9.20385 40.5354
CA 14.8366 20.6901 40.9173
CA 4.57378 18.8089 37.3328
CA 17.1983 -14.0353 53.9015
CA 34.1579 -7.71965 36.9942
CA -0.29535 6.6598 52.526
CA 12.4418 -22.346 21.0947
CA 4.5128 13.2613 53.4158
CA 0.0360729 31.8388 40.9043
CA 0.223075 -0.319107 43.8639
CA 23.892 3.32192 69.9587
CA 1.55629 -6.28972 47.9414
CA 3.42707 -13.4582 58.6165
CA 3.68021 10.9304 42.5131
CA 7.5954 14.698 22.7051
CA 7.1232 13.5418 44.8933
CA -31.9912 9.27302 55.2152
CA 7.57568 -20.5648 31.1464
CA 10.0117 20.9985 40.8023
CA 2.20071 13.0631 87.7011
CA 6.11474 9.94662 42.8569
CA -0.910763 22.299 38.1603
CA 1.6778 35.7855 38.5325
CA 20.4623 10.2392 18.4063
CA 5.17839 -18.9573 61.1058
CA 22.5169 -14.8606 51.8342
CA -33.3194 -15.5129 59.3313
CA 0.548155 10.3339 54.6986
CA 13.1351 -7.46818 73.8367
CA -1.08722 17.9066 43.4792
CA 41.8547 -10.9828 48.9064
CA 3.94906 5.45335 54.6139
CA 25.0593 -8.9634 52.0856
CA 14.1954 -23.6781 19.3712
CA -6.52795 8.44843 39.2753
CA 15.3312 -5.09996 44.1142
CA 9.31757 -7.03265 69.6736
CA 4.61719 3.55089 46.9948
CA 31.2702 0.821696 29.2898
CA 4.80685 15.9642 43.8303
CA 10.038 0.833965 49.9556
CA 13.7421 2.30657 74.9095
CA 7.11514 3.87805 31.9717
CA 45.6809 -13.1127 56.6699
CA 21.1554 -14.8483 59.0616
CA -23.9319 -11.9859 47.4592
CA -6.9479 -22.895 75.8042
CA 3.48379 -4.60166 75.4785
CA -31.1915 -16.6654 62.7899
CA 23.2313 -8.10678 48.8347
CA 16.5783 -9.29103 42.8338
CA 11.7856 -18.7414 29.4388
CA 2.78254 18.9255 31.8307
CA 35.3283 -17.5673 50.1312
CA 4.30252 -18.5881 64.0565
CA -23.4039 13.8933 46.5478
CA -33.0291 14.0508 55.5726
CA -34.647 10.728 49.2895
CA 2.42444 -21.3238 68.7576
CA 16.5979 -9.29315 69.8832
CA -1.70075 8.30404 43.3639
CA 7.20059 -8.78263 63.2995
CA 3.53136 17.2787 20.1341
CA -23.6278 -11.8251 23.9182
CA 13.1354 -0.51596 74.2961
CA 36.5901 -6.87233 63.5137
CA 12.6232 10.6734 17.4563
CA 0.649414 7.70625 43.6114
CA 18.3275 -0.826834 73.2488
CA -34.5403 4.00499 59.7879
CA -3.44022 14.4987 86.1959
CA -13.3131 -24.8009 37.8741
CA 1.30808 1.24427 45.1243
CA 4.70661 21.7668 44.1645
CA 23.5003 -14.4809 49.6791
CA -2.78213 -16.1401 42.7448
CA 13.6977 -13.6095 29.6975
CA -16.6394 -22.9696 35.2802
CA 10.1738 21.053 36.1294
CA -6.25052 13.8008 84.9191
CA 6.53805 13.0614 19.835
CA -30.4625 -8.26565 71.4208
CA 19.151 2.29156 38.825
CA 10.3865 8.48339 42.0489
CA 2.59853 1.67392 53.8613
CA 3.54878 16.8039 41.0998
CA 20.2815 0.171811 66.417
CA 16.9251 -4.20907 69.6464
CA 14.5586 11.3045 22.0557
CA 13.4398 -10.4524 75.9336
CA 19.4871 -14.9113 57.9713
CA -6.45488 -9.15758 70.5402
CA 36.6658 -4.73618 72.5601
CA -0.451787 2.50488 38.5898
CA 19.9177 -7.63595 60.3279
CA 7.9938 -1.32741 35.8894
CA 43.699 -14.1693 53.4853
CA 17.6768 -1.69982 62.6876
CA 3.28267 -18.0354 61.2673
CA 20.1398 -0.139367 42.7903
CA 3.4423 6.64185 50.9861
CA 21.7982 1.76826 23.598
CA 6.71182 10.8569 46.3306
CA -7.40335 -10.3668 31.0354
CA -3.20239 21.5448 38.8662
CA 9.07179 6.19288 37.4645
CA -36.5316 10.6562 59.0332
CA 27.9952 -6.43567 65.5571
CA 3.51779 23.6946 37.6806
CA -6.46784 13.4438 82.1676
CA 13.7044 10.4521 38.1878
CA 26.0538 -3.81373 25.8036
CA 18.9923 1.79753 45.0524
CA 4.45116 21.9726 26.9465
CA 36.2936 -9.63425 52.3375
CA -4.97684 -16.0972 42.5775
CA 7.68954 -18.8639 61.6427
CA 27.3473 -6.58128 51.9943
CA 24.9687 -10.046 68.0824
CA -2.71843 8.18038 50.8384
CA 19.3248 -14.9537 55.945
CA 20.2547 -2.71616 59.2979
CA -32.2123 8.51084 59.6961
CA 4.14966 -15.4434 57.8775
CA 4.7845 13.1357 22.1511
CA 11.0271 -20.2642 31.3602
CA 21.9604 7.08792 51.7665
CA 8.34672 4.91477 42.1165
CA -17.8967 -9.91712 26.5413
CA 16.1488 -7.13821 70.6778
CA 12.0802 -5.76145 40.7135
CA 35.2545 -5.54365 61.3081
CA 16.4622 19.3924 17.669
CA 0.536146 16.8717 48.1725
CA -2.96344 5.87066 53.0338
CA -3.08127 13.3768 89.1779
CA -0.791441 6.05449 35.8673
CA 16.6171 -8.02265 72.1911
