489

CA 7.76181 -25.6862 50.3192
CA 18.1632 15.0259 37.4074
CA 20.1836 -17.7266 40.0551
CA 36.265 -21.9459 65.0056
CA 18.1957 -16.0261 53.9843
CA 38.7199 -23.1322 41.3011
CA -13.0869 -13.1669 57.6091
CA 19.8761 -11.9519 64.7928
CA 10.2281 18.3491 29.2117
CA 25.4011 -13.1251 73.4159
CA 24.0519 -12.2129 53.0968
CA 22.5395 -24.7738 49.3324
CA 23.2029 -18.4724 62.5574
CA 3.37983 -15.7853 45.1716
CA 3.72937 -26.2518 66.4819
CA 38.6402 -26.7518 41.7185
CA 27.058 -0.910317 63.3695
CA 24.2098 -20.5943 47.1858
CA 17.7406 3.48789 48.4956
CA 42.0408 8.79762 63.3506
CA 15.8786 -12.4554 38.5058
CA 13.6247 -7.37269 57.0893
CA 24.5537 -26.2517 64.3457
CA 1.99913 -1.30793 55.8002
CA 23.5476 -19.5769 59.9771
CA 14.2572 3.00108 36.6808
CA 24.9416 -2.09542 64.0145
CA 19.3889 5.72604 43.2437
CA 23.0126 -11.206 43.5335
CA 3.34306 -21.128 61.2607
CA 5.3402 10.0807 15.2946
CA 22.4494 -8.00382 62.5332
CA 26.2703 -18.1299 45.4953
CA 22.5538 -21.4303 74.991
CA 9.09429 -5.90048 52.8122
CA 43.3648 -21.2242 50.1803
CA 20.1548 -18.0079 28.5289
CA 12.4625 10.9062 19.9571
CA 30.334 -17.7174 46.9
CA 9.8408 -2.66514 53.935
CA 39.7528 -9.85924 50.082
CA 30.6052 8.51227 67.2025
CA 24.6777 -1.86631 43.2554
CA 16.307 -18.4857 63.6337
CA 49.0549 -12.8738 59.6288
CA -27.462 -3.14943 43.2928
CA 44.278 -22.215 38.5803
CA 22.7407 10.8894 67.4881
CA 9.59234 4.22517 64.2689
CA 26.83 -26.9889 69.8642
CA 39.5085 -0.471121 41.2005
CA 15.3984 -15.9898 81.3585
CA 38.9183 -17.5733 60.7095
CA 5.16979 -18.5659 47.7143
CA 37.8099 -11.3435 44.2579
CA 46.5126 7.83161 59.0458
CA 12.534 6.27409 45.8061
CA 14.497 -19.9373 62.242
CA 0.900381 -20.0978 57.8084
CA 10.4549 -20.2025 39.6262
CA 20.6477 -17.4657 49.225
CA 11.6126 -19.2625 56.4796
CA 21.7525 8.53716 61.4315
CA 3.89075 -20.3095 46.5337
CA 31.7314 -16.9036 43.9062
CA 35.9671 -29.4011 35.5424
CA 21.5355 -7.58881 59.7907
CA 22.6476 -14.5624 43.3004
CA 42.2307 -18.1976 42.1898
CA 18.696 -23.0962 29.6894
CA 23.6755 -10.2386 53.1627
CA 33.7621 -2.41848 72.7302
CA -21.2669 -4.90488 52.3546
CA 18.5183 -14.4642 45.1595
CA 19.0184 -36.9386 63.3031
CA 50.8154 -11.0507 48.8171
CA 26.2128 -9.83398 23.38
CA 40.8934 -15.4328 61.6697
CA 31.9341 -27.3584 37.526
CA 10.5638 11.4528 28.8043
CA 24.9336 -8.10047 21.974
CA 20.5394 -7.89175 63.6873
CA 20.3947 -16.9725 52.3073
CA 49.2817 4.55511 60.2684
CA 3.20141 -12.8486 47.2301
CA 30.2707 -23.8116 64.5242
CA 11.2261 13.8003 20.5541
CA 26.9679 -12.0685 49.7267
CA 23.4378 -6.81259 55.314
CA 14.0478 -24.827 53.7868
CA 1.09492 4.62294 61.2875
CA 5.5644 -15.7647 66.3156
CA 12.8058 7.59137 67.6968
CA 1.13272 -14.941 64.2753
CA 32.4309 -20.2884 38.37
CA 27.0266 -24.8117 33.0459
CA 48.7004 9.46555 61.6374
CA 19.6894 -17.4425 33.6247
CA 45.8395 -15.8637 57.5121
CA 18.0336 -18.5128 68.2928
CA 29.6795 -13.0118 37.9776
CA 29.661 8.11485 59.1682
CA 33.8692 -17.8309 52.1571
CA 11.6946 -20.003 42.1917
CA 28.4847 -24.2949 41.3176
CA 18.0496 -9.87421 79.2647
CA 40.5146 -16.7835 59.6849
CA 19.3815 -29.9421 57.324
CA 16.8256 4.81615 53.4245
CA 27.5946 8.83492 66.1591
CA 32.952 7.40702 66.5758
CA 17.1376 11.7239 45.3453
CA 23.8692 -34.4078 53.3298
CA 30.5882 -1.79262 75.0569
CA 14.6448 -9.18838 59.7325
CA 30.8381 -13.0951 51.6139
CA -7.19208 -2.46029 62.7548
CA 18.6034 -33.4727 67.8109
CA 37.4993 7.02762 60.6721
CA 13.5321 -12.2606 63.0294
CA 22.6035 1.26169 43.7286
CA 9.2855 -2.92892 58.4339
CA -8.33912 4.73569 64.0112
CA 21.9911 8.89512 35.3235
CA 27.6603 1.59892 59.041
CA 25.6083 -20.072 28.8502
CA 14.3253 -21.3103 76.7502
CA 19.3583 -17.0613 80.6309
CA 9.82731 -17.5667 43.0461
CA 30.2999 5.6949 57.5994
CA 20.8459 -0.583957 31.0706
CA 1.86665 -3.25498 55.5363
CA 24.63 -13.9958 44.5592
CA 28.8475 -22.559 38.4353
CA 28.3349 -14.998 70.9145
CA 34.0448 9.06391 59.5425
CA 38.6694 -10.8737 65.6189
CA 19.8887 -1.07457 47.7729
CA 30.3459 -15.0722 51.644
CA 27.4355 14.5104 65.6736
CA 23.4146 -32.8987 63.0953
CA -1.04004 -24.9259 70.0302
CA 24.8535 10.2608 66.196
CA 23.7031 -22.4159 32.2801
CA 24.2202 -8.3929 70.923
CA 27.3146 -26.1128 65.0255
CA 9.09434 -22.848 57.9121
CA 21.2345 16.1294 39.7222
CA 33.3899 -25.2644 57.9004
CA 37.0106 -19.0055 51.9298
CA 28.2812 -2.03539 57.2896
CA 26.6227 -30.6568 64.4959
CA 38.8692 -10.0198 39.6396
CA 25.3829 -21.9794 65.3966
CA 23.6199 20.6176 34.3483
CA 19.8883 -13.8625 78.7939
CA 25.8052 -4.85746 47.086
CA 15.7847 8.46847 15.9621
CA 26.6133 -15.301 87.5915
CA 22.6963 19.9331 36.1695
CA 25.5257 6.24336 75.2036
CA 21.8029 -6.90114 23.0106
CA 2.75847 -1.43752 53.9422
CA 14.7132 8.05739 32.679
CA 18.7031 -2.92497 43.517
CA -3.48828 1.87598 62.3543
CA 42.0336 -21.1808 34.7141
CA 20.3001 -25.5654 35.4304
CA 12.7086 4.45279 57.8047
CA 26.8561 -8.59995 51.7805
CA 18.4395 -13.1668 76.7711
CA 33.7292 0.569616 72.8916
CA 25.702 -23.1123 33.8625
CA 31.0453 -3.66705 76.9863
CA 29.2507 -18.0457 50.645
CA 34.0591 -8.9056 74.0284
CA 28.6973 -23.5283 50.2225
CA 15.9695 -34.3115 52.3555
CA 20.3894 -25.3455 37.8241
CA 41.1881 0.564218 41.4914
CA 24.4346 -22.5212 52.7912
CA 17.4084 15.479 21.2151
CA 10.6463 -29.5134 49.7073
CA 10.0296 12.3591 16.4698
CA 20.6589 -15.404 39.9207
CA 11.6227 -17.9726 42.7646
CA 25.9558 -11.3831 69.7551
CA 23.9271 -36.4233 63.0612
CA 19.6065 -25.9975 70.2488
CA 40.5294 4.20602 64.7226
CA 39.9268 -15.9516 54.6926
CA 22.0752 -24.2479 61.2191
CA 27.7819 -11.73 83.3549
CA 18.8316 -5.80398 56.0291
CA 8.79428 13.0276 24.036
CA 23.169 6.7348 43.5873
CA 38.8984 -12.7863 44.4305
CA 19.6461 -18.0775 65.8938
CA 17.8714 -13.0447 61.4322
CA 26.0561 7.56391 56.5521
CA 6.34054 -9.92129 47.9451
CA 37.9995 -9.47097 70.0794
CA 21.8139 -9.99234 61.786
CA 28.5251 -26.2425 43.093
CA 22.3938 -18.2521 42.1175
CA 26.898 -17.16 59.9693
CA 32.8908 1.05209 62.1579
CA 11.2488 -15.867 51.7101
CA 10.6262 -36.1087 65.3048
CA 23.0716 -4.39652 65.9698
CA 17.7337 1.12641 28.6159
CA 46.9968 -3.27122 41.6339
CA 20.1048 14.3202 37.6494
CA 6.15042 -23.2213 62.7139
CA 33.2865 -23.8864 38.4705
CA 39.2057 8.62561 56.7319
CA 47.8846 -21.376 53.0202
CA 12.3458 1.45089 59.6567
CA 17.8271 7.50564 39.006
CA -13.94 -10.8573 60.178
CA 43.2736 -17.0559 61.0281
CA 27.1804 15.2021 63.0081
CA 15.8778 -15.3133 49.1991
CA 33.429 -14.8768 83.0002
CA 12.3542 4.13222 61.0702
CA 20.7537 6.96058 60.2175
CA 16.8921 -20.1878 63.8394
CA 26.6146 -19.8683 54.0766
CA 18.6724 -26.8376 56.249
CA 11.3883 -1.01911 45.409
CA 32.0814 0.553343 75.5365
CA 28.5624 -14.5822 52.2691
CA 39.629 -20.8184 66.7018
CA 8.64442 1.56267 58.1296
CA 10.6504 2.18997 54.2828
CA 31.5983 1.39855 54.4637
CA 5.68503 -20.1302 62.7949
CA 28.1492 -5.38826 22.6741
CA 24.7865 -23.2616 48.9075
CA 48.1166 -20.7784 54.8469
CA 13.3319 7.20489 61.5394
CA 11.6395 -25.3512 51.1951
CA 37.6245 -14.7528 51.7011
CA 13.6291 14.9338 19.1809
CA 26.3232 -17.7838 36.2563
CA 7.15806 2.33874 46.1385
CA 13.5945 3.65262 41.1776
CA 12.9338 8.96776 18.8982
CA 17.6067 13.2355 33.9804
CA -9.21148 -6.82154 62.8615
CA 6.14786 -16.184 42.4546
CA 30.9236 -21.0227 42.3891
CA 20.6989 11.0744 40.034
CA -0.704899 0.310083 53.0652
CA 29.8829 1.46691 58.8152
CA 47.4751 8.35443 64.1575
CA 16.007 -15.7403 59.8009
CA 17.9438 -11.9074 57.2363
CA 23.1807 -12.5679 62.3244
CA 41.4299 -18.0758 46.607
CA 11.0747 -2.23624 30.3473
CA 9.91361 -15.7096 49.1978
CA 19.0255 -16.3281 74.0385
CA 36.2972 -17.6314 83.6607
CA 26.1526 3.6233 61.3696
CA 21.9773 -13.118 74.0863
CA 12.1377 -23.6732 59.7925
CA 10.1406 10.6043 11.5729
CA 16.8524 1.90501 53.1748
CA 6.66558 -20.3009 47.8723
CA 41.3267 -2.01758 41.3266
CA 44.0762 -0.567214 39.0452
CA 13.6301 -8.92535 54.7516
CA 27.9889 2.3756 52.703
CA -19.7031 -6.55115 52.4874
CA 44.9701 -0.349715 41.4913
CA 35.8096 -11.3526 43.7597
CA 28.9486 -16.0511 67.7676
CA 32.3824 10.9533 82.9594
CA 13.0011 3.56795 55.2715
CA 17.483 -13.3679 53.4688
CA 23.0171 15.5279 41.2044
CA 29.5179 -20.8168 39.5439
CA 42.5441 -24.4804 34.4126
CA 51.3669 -19.8151 55.6948
CA 28.6965 -15.4864 31.1901
CA 39.9033 -9.73795 36.3779
CA 46.1553 -18.7135 51.4954
CA 30.3947 -11.8762 54.9507
CA 23.8191 -26.8524 43.2544
CA 45.1006 5.86861 57.2658
CA 17.4758 1.71062 33.0319
CA 26.0546 -25.2173 42.5245
CA 32.4513 8.6865 77.3893
CA 42.8242 7.26977 65.1664
CA 11.5534 4.30367 65.6218
CA 49.4715 -19.9638 52.8592
CA 15.6353 6.98377 54.9029
CA 38.5605 -15.3633 57.5056
CA 1.40966 -23.1971 53.7298
CA 8.80565 -3.47675 55.2185
CA 23.6791 -13.6251 41.8752
CA 0.173675 -2.34874 58.6534
CA 11.2095 -20.2278 58.9269
CA 41.0786 10.0035 61.9769
CA 19.2664 -24.7176 55.1355
CA 22.4279 3.475 28.9803
CA 33.9389 8.36893 70.7118
CA 28.5469 -11.7555 56.42
CA 15.7099 -1.62076 40.8237
CA 27.0467 -3.75054 51.6877
CA 32.3948 -5.97961 73.889
CA 18.8944 8.53974 44.3909
CA 28.8038 9.12671 73.1878
CA 9.44615 15.962 16.5509
CA 7.80886 -25.0836 58.9277
CA 29.1654 2.58942 62.6495
CA 21.1068 -15.7643 44.8087
CA 22.6169 -33.8419 51.7739
CA 15.0862 9.7634 9.14064
CA 25.4816 -31.3274 66.628
CA 17.6348 -33.3699 54.0364
CA 21.9679 -16.8264 32.7101
CA 15.3044 10.2791 33.5722
CA 18.4343 -15.7297 56.8391
CA 36.9789 -17.1148 58.1326
CA 13.0099 -30.5576 52.2302
CA 33.204 -1.43394 55.2018
CA 24.635 -3.79879 62.5627
CA 21.2919 -12.8345 25.8696
CA 21.8358 -19.7666 63.6612
CA 25.4956 -10.1017 49.939
CA 33.6974 10.1817 73.7459
CA 15.707 -18.1458 78.4319
CA 14.2312 -30.7013 67.2971
CA 21.161 -4.64801 29.1128
CA -15.171 -10.4732 57.2999
CA 31.3145 -4.7525 60.7914
CA 19.6758 -25.3693 73.0206
CA 16.0211 -16.5762 39.5298
CA 20.2329 -33.3466 53.3679
CA 35.8926 -14.0899 53.986
CA 20.8638 -26.2914 74.0175
CA 5.48325 -20.0025 56.3858
CA 51.2568 -11.364 54.4736
CA 8.81302 -3.53691 60.4385
CA -15.2621 -6.07714 56.1954
CA 24.2041 -11.5866 44.8527
CA 11.852 -33.8771 65.5616
CA 29.6512 9.95592 79.7299
CA 28.126 -17.3542 82.3241
CA -2.71724 -19.8257 39.9784
CA 20.2997 7.13398 63.2089
CA 18.2212 -15.6344 51.3903
CA 10.1132 -27.4306 61.1947
CA 26.1065 -10.7333 74.305
CA 26.9048 -20.5276 47.9423
CA 25.5898 -5.15002 60.1498
CA 9.03803 -19.3485 41.512
CA 14.2061 -22.0988 40.5049
CA 35.5055 -23.4488 62.1708
CA 25.4047 -6.11582 73.6806
CA 21.9517 -10.854 21.592
CA -25.4106 -6.71037 53.444
CA 21.7634 -21.7846 70.9089
CA 39.4283 -19.9489 63.1824
CA 7.49577 8.85693 9.52431
CA 31.439 -0.94937 51.973
CA 29.523 -4.27165 56.1101
CA -21.3232 -6.24276 41.9274
CA 23.7316 -15.8468 62.7127
CA 41.8494 -26.4014 41.6811
CA -0.290666 -0.32722 61.8004
CA 26.6428 -12.2755 76.0444
CA 25.0938 -23.4924 61.6357
CA -5.24703 3.88694 60.5768
CA 29.3142 4.87936 51.8594
CA 34.9722 -9.5236 41.7066
CA 33.0197 -20.6939 44.9057
CA 32.9676 -5.24864 77.023
CA 30.206 0.0928213 66.6883
CA 10.8285 -4.73849 55.753
CA 44.6649 5.28541 59.4061
CA 31.6134 7.88667 79.4715
CA 24.0671 -15.1623 59.9008
CA 32.4725 4.61213 72.8605
CA 27.2937 -14.4695 29.8051
CA 8.68163 -26.1934 63.0309
CA 52.5243 -15.6495 55.497
CA 30.2543 13.2829 83.3427
CA 27.1469 -1.58032 20.4758
CA 51.9395 -13.0958 50.0263
CA 3.50472 -21.93 52.324
CA 28.0114 3.47573 64.8326
CA 15.1366 3.75081 38.5966
CA 34.2944 3.42766 71.9516
CA 27.5209 -20.0022 50.1578
CA 45.7879 3.44041 61.7392
CA 22.5764 -9.30453 48.6697
CA 27.1074 7.65703 41.9302
CA 25.2195 -20.986 33.3735
CA 2.34013 2.94231 59.6967
CA 18.9252 6.69024 16.7811
CA 15.9033 7.31165 30.8416
CA 13.8088 -8.51597 63.891
CA 25.4731 8.50193 62.6581
CA 29.0658 -21.6548 83.4305
CA 32.6452 -14.9346 84.7567
CA 5.03855 -10.0916 49.5315
CA 0.896724 -25.1975 66.0366
CA 20.1755 -26.6976 52.0576
CA 29.2105 10.9994 81.8456
CA 28.5187 -22.56 74.0459
CA 31.048 -17.63 27.2707
CA 35.0593 4.39645 75.9297
CA -2.70416 -0.467593 59.1553
CA 6.61662 11.4939 13.0708
CA 44.962 -9.45194 49.9615
CA 20.2729 -7.52087 22.2736
CA 43.3003 -20.5754 43.0943
CA 34.3175 -13.9318 80.2588
CA -13.555 -11.5361 55.1377
CA 15.2469 2.56575 62.8262
CA 19.2811 12.4826 42.2849
CA 29.3278 0.885424 53.0218
CA 39.6841 -7.32952 36.3683
CA 10.3427 -2.85386 49.6099
CA 24.2767 -20.4587 74.9797
CA 23.7253 -16.9331 70.4199
CA 32.9249 6.41164 78.0129
CA 24.1588 -8.78966 50.0502
CA 23.3596 -10.8714 46.7918
CA 11.0425 -22.6504 41.7834
CA 26.5755 -9.96704 68.6433
CA 22.0286 -8.24047 51.5044
CA 18.3664 -29.4717 53.4963
CA 12.4671 4.10414 51.2414
CA 24.432 -27.3468 67.4559
CA 27.6177 -10.1421 72.9295
CA 22.677 -17.0662 80.7482
CA -2.79547 -1.48061 64.3715
CA 29.0352 -17.1396 34.7007
CA 4.12917 3.58571 57.6268
CA -25.5333 -4.53868 48.0935
CA 30.4566 -14.1058 44.2603
CA 22.8138 -13.4637 82.0279
CA 24.306 -12.7918 32.1646
CA 33.9775 -21.012 36.3357
CA 12.8181 15.1439 31.2274
CA 40.1842 -4.46692 40.5271
CA 31.2008 3.3394 73.7555
CA -12.7299 -8.93996 62.566
CA 22.3587 -10.4662 59.1005
CA 15.5934 -10.7447 59.6366
CA 6.64457 -19.0039 46.6025
CA 41.7847 -19.5149 60.5305
CA 28.4939 -17.0521 40.8811
CA 15.1595 11.2843 31.548
CA 12.9081 -12.8499 40.0099
CA 22.0357 8.80618 66.7546
CA 18.8123 -25.547 60.6706
CA 27.7732 -15.9861 83.9236
CA -2.19584 0.0022895 61.5398
CA 13.7393 5.23168 29.6527
CA 18.6636 -24.6897 34.4717
CA 21.2364 -7.86149 42.4013
CA -0.110281 -16.1791 43.3255
CA 24.8614 -1.14478 21.2984
CA 20.5668 16.0348 37.271
CA 9.48298 11.5289 6.99812
CA -22.6735 -9.95753 53.2659
CA 7.51654 -17.3013 46.3401
CA 12.8889 2.238 28.317
CA 30.8277 -24.9683 74.6936
CA 40.0551 -12.4305 60.4171
CA 22.6019 -8.88862 27.3181
CA 29.3577 -20.0409 42.8816
CA -24.575 -2.98901 43.6205
CA 42.3757 -2.94336 37.3595
CA 24.2691 -19.5586 49.2557
CA 35.7449 -11.0629 46.0763
CA -3.76006 -2.87993 69.0085
CA 35.5894 -10.3375 75.1194
CA 25.9786 -28.3136 63.8325
CA 11.7008 -3.63864 53.7771
CA 26.7172 10.2697 81.4815
CA 25.2152 -25.2347 29.0296
CA 17.0463 8.5222 13.1485
CA 8.27623 -19.6104 58.5282
