489

CA 31.0473 -21.6951 37.64
CA 42.3617 -15.227 45.4718
CA 10.0013 -31.9085 50.9503
CA 17.9507 -22.8754 41.2017
CA 18.1957 -16.0261 53.9843
CA 17.4712 -3.52673 46.0739
CA -13.0869 -13.1669 57.6091
CA 19.8761 -11.9519 64.7928
CA 37.0739 1.58301 74.2945
CA 25.4011 -13.1251 73.4159
CA 31.9574 1.86773 70.7045
CA 16.0679 -7.99586 59.5731
CA 23.2029 -18.4724 62.5574
CA 5.90384 2.29412 47.8122
CA 21.7807 15.9902 39.8754
CA 30.086 13.9882 81.2606
CA -7.77029 -9.49799 62.5412
CA 29.3009 -14.4611 57.1066
CA 31.9802 -13.0615 53.4156
CA 42.0408 8.79762 63.3506
CA 15.8786 -12.4554 38.5058
CA 13.6247 -7.37269 57.0893
CA 24.5537 -26.2517 64.3457
CA 1.99913 -1.30793 55.8002
CA 27.0963 -11.4351 36.2667
CA 13.9266 -6.82521 68.3598
CA 36.9139 -23.6523 45.804
CA 19.3889 5.72604 43.2437
CA 42.6548 -14.1272 53.9783
CA 36.4024 -13.1304 74.0374
CA 27.0166 -12.6732 83.6329
CA 23.8797 -20.108 42.4049
CA 34.9982 -20.386 38.4945
CA 22.5538 -21.4303 74.991
CA -0.444073 -12.9103 70.5291
CA 17.8426 11.0008 33.8884
CA 35.9689 9.31193 63.3057
CA 23.8211 -11.1041 23.8108
CA 34.6904 -19.7076 64.2782
CA 9.8408 -2.66514 53.935
CA 26.1941 -26.0091 39.5042
CA 30.6052 8.51227 67.2025
CA 24.6777 -1.86631 43.2554
CA 16.307 -18.4857 63.6337
CA 49.0549 -12.8738 59.6288
CA 27.6374 6.84331 79.5315
CA 32.7778 3.8314 62.6197
CA 17.6501 -23.8758 54.0053
CA 14.6732 4.03697 69.5733
CA 47.6546 -20.9116 38.5729
CA 33.6492 10.6683 69.5941
CA 15.3984 -15.9898 81.3585
CA 18.1539 -14.4362 79.2675
CA 5.16979 -18.5659 47.7143
CA 37.8099 -11.3435 44.2579
CA 34.1623 -22.1136 50.2444
CA 12.534 6.27409 45.8061
CA 30.0755 -2.39397 50.6246
CA -5.5865 -4.0261 68.0207
CA 10.4549 -20.2025 39.6262
CA 14.2064 -35.5009 67.7613
CA 11.6126 -19.2625 56.4796
CA 21.7525 8.53716 61.4315
CA 15.2131 -25.5654 60.4965
CA 10.5616 7.32003 48.7547
CA 35.9671 -29.4011 35.5424
CA 21.5355 -7.58881 59.7907
CA 22.6476 -14.5624 43.3004
CA 14.406 2.34032 42.6379
CA 10.4697 -17.3396 52.8419
CA 12.6755 -1.68979 43.7545
CA 28.1789 -11.0999 50.7619
CA 9.60331 9.49719 46.442
CA 18.5183 -14.4642 45.1595
CA 21.2794 -21.4429 42.4319
CA 35.1393 4.62976 70.6625
CA 26.2128 -9.83398 23.38
CA 4.56279 -10.0451 46.9091
CA 31.9341 -27.3584 37.526
CA 10.5638 11.4528 28.8043
CA 32.332 -16.3799 27.0347
CA 33.1177 -13.5288 43.8137
CA 20.3947 -16.9725 52.3073
CA 22.6205 -11.3686 49.357
CA 3.20141 -12.8486 47.2301
CA 41.85 -25.7454 36.3958
CA 11.2261 13.8003 20.5541
CA 39.3117 4.05408 72.3397
CA 23.4378 -6.81259 55.314
CA 28.3145 -13.3508 39.2349
CA 1.09492 4.62294 61.2875
CA 5.5644 -15.7647 66.3156
CA 12.8058 7.59137 67.6968
CA 15.9585 4.29587 32.3544
CA 29.5649 -10.6749 80.8167
CA 27.0266 -24.8117 33.0459
CA 48.7004 9.46555 61.6374
CA 19.6894 -17.4425 33.6247
CA 45.8395 -15.8637 57.5121
CA 18.0336 -18.5128 68.2928
CA 23.5795 -0.811543 39.4347
CA 29.661 8.11485 59.1682
CA -17.4653 -6.3461 55.9742
CA 13.0152 13.7104 8.24545
CA 25.7953 -29.2503 55.1828
CA 31.3265 -18.2016 54.1917
CA 7.2947 -15.3158 42.6323
CA 25.6202 -13.2876 71.2517
CA 32.2845 -24.6181 50.3235
CA 46.2898 -11.7097 40.0317
CA 32.3482 0.0428109 67.5939
CA 17.1376 11.7239 45.3453
CA 30.0025 -9.79645 49.2023
CA 23.974 -22.9685 74.1648
CA 19.6016 -7.00596 69.5016
CA 30.8381 -13.0951 51.6139
CA -7.19208 -2.46029 62.7548
CA 50.0641 -18.517 53.8589
CA 37.4993 7.02762 60.6721
CA 13.5321 -12.2606 63.0294
CA 32.5498 -25.4791 45.1317
CA 21.4285 -6.01563 72.7969
CA 28.0248 -2.71071 44.8115
CA 12.4815 5.39149 41.3745
CA 27.6603 1.59892 59.041
CA 25.6083 -20.072 28.8502
CA 14.3253 -21.3103 76.7502
CA 29.4461 -10.8946 53.375
CA 9.82731 -17.5667 43.0461
CA 30.2999 5.6949 57.5994
CA 20.8459 -0.583957 31.0706
CA 30.0419 -13.41 78.672
CA 18.9334 -15.3846 65.6557
CA 4.09517 -24.3197 63.3603
CA 28.3349 -14.998 70.9145
CA 34.0448 9.06391 59.5425
CA 35.8093 -23.0617 43.0652
CA 19.8887 -1.07457 47.7729
CA 11.3403 12.8173 9.81001
CA 27.3026 12.7676 65.4528
CA 40.1771 -14.1893 54.335
CA 40.5686 12.4074 59.5397
CA 24.8535 10.2608 66.196
CA 25.1794 -2.40357 29.5726
CA 16.0998 2.28201 43.5267
CA 27.3146 -26.1128 65.0255
CA 23.0385 17.1053 35.774
CA 4.3672 -21.7186 63.9638
CA 22.874 -27.1395 62.5997
CA 37.0106 -19.0055 51.9298
CA 21.7889 8.50179 18.0541
CA 9.76207 14.3308 17.3466
CA 33.2264 -22.5505 42.1409
CA 25.3829 -21.9794 65.3966
CA 20.7821 -35.7144 55.2731
CA 19.8883 -13.8625 78.7939
CA 0.234942 0.455193 56.1511
CA 19.7909 -13.456 52.5419
CA 14.2033 -28.4965 61.7262
CA 21.9654 11.1325 16.1481
CA 8.52586 3.35714 60.4431
CA 21.8029 -6.90114 23.0106
CA 27.5864 -22.9877 67.7619
CA 14.7132 8.05739 32.679
CA 18.7031 -2.92497 43.517
CA -3.48828 1.87598 62.3543
CA 11.9915 -24.4857 57.078
CA 21.3237 -10.1532 26.6385
CA 12.7086 4.45279 57.8047
CA 14.3293 -21.3497 44.4043
CA 41.8145 7.78851 55.5123
CA 18.6372 -16.4727 31.3008
CA 25.702 -23.1123 33.8625
CA 19.4779 7.58533 10.2604
CA 35.155 -13.0047 42.0885
CA 34.0591 -8.9056 74.0284
CA 28.6973 -23.5283 50.2225
CA 15.9695 -34.3115 52.3555
CA 20.3894 -25.3455 37.8241
CA 26.6331 -23.4854 31.5318
CA 24.4346 -22.5212 52.7912
CA 2.83451 -4.01989 54.17
CA 10.6463 -29.5134 49.7073
CA 10.0296 12.3591 16.4698
CA 20.6589 -15.404 39.9207
CA 34.3881 -3.10363 77.4429
CA 10.0355 -30.4263 52.2683
CA 23.9271 -36.4233 63.0612
CA 19.6065 -25.9975 70.2488
CA 11.0617 5.09479 47.3328
CA 39.9268 -15.9516 54.6926
CA 22.0752 -24.2479 61.2191
CA 19.5442 4.99213 68.6934
CA 18.4904 -10.7335 37.3044
CA 8.79428 13.0276 24.036
CA 35.4227 -0.0602798 74.8876
CA 38.8984 -12.7863 44.4305
CA 19.6461 -18.0775 65.8938
CA 17.8714 -13.0447 61.4322
CA 27.9108 -23.7264 35.2369
CA 21.0935 -22.7374 29.7657
CA 19.0027 -12.3729 38.0887
CA 9.95382 -3.02304 61.4352
CA 28.5251 -26.2425 43.093
CA 22.3938 -18.2521 42.1175
CA 12.0335 -15.6764 61.6344
CA 45.3527 -16.7449 41.6593
CA 1.59141 -3.08857 52.3583
CA 10.6262 -36.1087 65.3048
CA 10.7264 -34.748 54.136
CA 17.7337 1.12641 28.6159
CA 13.2511 5.92142 51.0522
CA 29.8517 -15.0528 50.3845
CA 6.15042 -23.2213 62.7139
CA 33.2865 -23.8864 38.4705
CA 39.2057 8.62561 56.7319
CA -0.836927 6.01578 67.5295
CA 12.3458 1.45089 59.6567
CA 17.8271 7.50564 39.006
CA -13.94 -10.8573 60.178
CA 43.2736 -17.0559 61.0281
CA 30.3659 0.871535 45.9233
CA 15.8778 -15.3133 49.1991
CA 11.7148 12.589 14.0452
CA 38.256 9.33366 68.6075
CA 10.5208 -12.7375 40.0912
CA 27.6421 0.183754 67.4416
CA 23.2423 -30.9487 56.6391
CA 18.6724 -26.8376 56.249
CA 48.5603 8.35424 57.8312
CA 32.2977 -0.840003 74.1864
CA 10.8494 -1.75684 62.6157
CA 21.1047 -0.891523 44.5444
CA 46.5747 -21.0046 36.7191
CA 10.6504 2.18997 54.2828
CA 15.14 -19.1735 77.6895
CA 10.4884 -23.2075 60.4108
CA 18.9005 -32.2301 57.9962
CA 34.5041 -18.8796 37.1373
CA 17.7112 18.7305 36.7269
CA 13.3319 7.20489 61.5394
CA 21.3302 -4.21866 44.2267
CA 18.9001 -22.7264 36.3243
CA 19.249 17.1705 41.4224
CA 25.5717 -23.4263 37.9577
CA 7.15806 2.33874 46.1385
CA 13.5945 3.65262 41.1776
CA 12.9338 8.96776 18.8982
CA 19.6304 -23.6913 40.764
CA -9.21148 -6.82154 62.8615
CA 29.7344 -4.65994 50.4529
CA 30.9236 -21.0227 42.3891
CA 22.8398 8.33796 63.3509
CA 23.3616 10.4627 63.6081
CA 18.0946 -23.8584 73.7149
CA -25.702 -6.51192 50.0516
CA 19.3202 -10.9681 50.7599
CA 4.8317 -16.84 48.5912
CA 23.1807 -12.5679 62.3244
CA 41.4299 -18.0758 46.607
CA 11.0747 -2.23624 30.3473
CA 9.91361 -15.7096 49.1978
CA -3.79074 2.49218 66.349
CA 25.8305 -11.8179 21.3968
CA 26.1526 3.6233 61.3696
CA 28.6802 -14.565 80.671
CA 12.1377 -23.6732 59.7925
CA 10.1406 10.6043 11.5729
CA 32.6898 1.4712 58.8416
CA 6.66558 -20.3009 47.8723
CA 31.4094 -14.8483 81.2036
CA 44.0762 -0.567214 39.0452
CA 13.6301 -8.92535 54.7516
CA 13.848 -20.6295 38.2697
CA -19.7031 -6.55115 52.4874
CA 44.9701 -0.349715 41.4913
CA 14.8209 -28.687 69.0557
CA 24.0221 -8.89942 26.1376
CA 32.3824 10.9533 82.9594
CA 22.9034 -15.7591 52.4189
CA 17.483 -13.3679 53.4688
CA 52.7405 -18.9068 54.6932
CA 27.0097 -0.651228 42.783
CA 28.0364 -21.1103 41.3454
CA 39.9823 -12.992 62.9984
CA 19.0727 3.83511 41.2169
CA 5.92644 2.27133 61.1351
CA 18.6934 -35.3476 56.2126
CA 7.43741 -16.7199 48.7834
CA 38.31 6.88575 62.5463
CA 21.0082 -11.0514 54.903
CA 14.6234 5.29625 41.771
CA 26.0546 -25.2173 42.5245
CA 16.4835 -16.1124 47.4618
CA 42.8242 7.26977 65.1664
CA 11.5534 4.30367 65.6218
CA 31.0282 13.0875 79.49
CA 15.0913 -34.1934 54.4118
CA 38.5605 -15.3633 57.5056
CA 24.3241 -7.18027 24.4626
CA 46.1709 -23.1778 38.2301
CA 26.9573 -26.3017 62.9362
CA 18.4811 -17.2515 28.2267
CA 12.2884 -12.1242 38.2301
CA 17.8566 -20.3931 35.4958
CA 19.2664 -24.7176 55.1355
CA 9.06955 -12.6266 48.1556
CA 33.9389 8.36893 70.7118
CA 28.5469 -11.7555 56.42
CA 15.7099 -1.62076 40.8237
CA 27.0467 -3.75054 51.6877
CA 32.3948 -5.97961 73.889
CA 18.8944 8.53974 44.3909
CA 28.8038 9.12671 73.1878
CA 9.44615 15.962 16.5509
CA 7.80886 -25.0836 58.9277
CA 15.8801 -16.8605 75.748
CA 21.1068 -15.7643 44.8087
CA 22.6169 -33.8419 51.7739
CA 32.8201 5.40186 63.5373
CA 16.7236 -17.3125 78.8584
CA 4.51879 -11.8539 45.0269
CA 43.9145 -13.1734 41.2629
CA 30.6184 3.3386 55.906
CA 46.3863 -18.5812 48.7615
CA 22.9992 -35.0474 56.1207
CA 28.5559 -12.3577 43.4048
CA 19.4492 -32.7306 56.2548
CA 20.6724 -14.085 62.04
CA 21.2919 -12.8345 25.8696
CA 9.76006 -20.3796 57.191
CA 10.6064 -7.36917 48.9071
CA 33.6974 10.1817 73.7459
CA 20.7746 -13.3983 67.0566
CA 14.2312 -30.7013 67.2971
CA 9.85526 -9.38119 48.4352
CA -15.171 -10.4732 57.2999
CA 31.3145 -4.7525 60.7914
CA 38.4308 -6.07867 72.0478
CA 37.6012 -5.49145 73.752
CA 20.2329 -33.3466 53.3679
CA 35.8926 -14.0899 53.986
CA 24.9006 -16.7826 50.8079
CA 24.49 -7.29288 71.7353
CA 46.1681 -15.6593 43.0111
CA 9.77237 7.68938 20.3241
CA 17.7853 -25.5752 39.5497
CA 7.67817 -23.5454 63.6134
CA 17.8687 -20.5005 42.2934
CA 29.6512 9.95592 79.7299
CA 28.8797 -18.339 29.4146
CA 12.3407 -9.43135 58.0876
CA 6.26291 5.70823 48.7555
CA 9.01796 4.88438 44.7038
CA 16.7688 -21.7808 36.195
CA 32.0934 -0.025238 69.7092
CA 26.9048 -20.5276 47.9423
CA 8.96278 -15.9332 52.2372
CA 1.25267 -14.8144 46.5457
CA 14.2061 -22.0988 40.5049
CA 35.5055 -23.4488 62.1708
CA 27.8459 -11.4457 52.6342
CA 15.3065 -8.66105 56.6114
CA -25.4106 -6.71037 53.444
CA 21.7634 -21.7846 70.9089
CA 39.4283 -19.9489 63.1824
CA 36.193 -19.7044 36.5946
CA 38.0742 -5.7896 69.9254
CA 29.523 -4.27165 56.1101
CA 23.7404 -11.5917 81.8246
CA 3.52057 -6.84675 54.1711
CA 24.1814 -0.825873 62.2056
CA 18.6828 20.5315 37.4117
CA 26.6428 -12.2755 76.0444
CA 8.7676 -19.1926 47.0563
CA 28.9304 11.4606 71.0591
CA 26.7959 -12.5967 59.1045
CA 10.9271 -15.7495 40.3747
CA 27.9744 -0.122857 49.1885
CA 24.3444 -15.9422 57.5448
CA 30.206 0.0928213 66.6883
CA 38.5262 -11.3044 33.5029
CA 40.6297 -9.46753 41.5716
CA 21.1635 -12.0325 45.7849
CA 26.2858 -1.24396 50.0147
CA 32.4725 4.61213 72.8605
CA 51.6737 -16.054 48.4251
CA 34.1661 9.44612 67.8352
CA 24.7996 -24.0274 31.7608
CA 19.1117 -18.3353 45.8102
CA 24.3594 -25.5748 40.5113
CA 51.9395 -13.0958 50.0263
CA 2.87529 -22.9477 61.4103
CA 28.0114 3.47573 64.8326
CA 4.18138 6.35452 60.1216
CA 30.4402 11.5241 69.3464
CA -21.7316 -4.03993 52.0946
CA 45.7879 3.44041 61.7392
CA 24.3579 6.65865 45.9255
CA 27.1074 7.65703 41.9302
CA 26.6574 -14.2345 46.088
CA 2.34013 2.94231 59.6967
CA 18.9252 6.69024 16.7811
CA 23.9714 -6.98088 75.3859
CA 51.2418 -17.2748 53.2376
CA 2.69116 -13.38 67.7018
CA 28.8406 4.12027 78.4542
CA 12.4062 -17.124 55.0647
CA 26.2087 -18.7599 42.2205
CA 0.896724 -25.1975 66.0366
CA 12.6998 13.3126 11.3287
CA 29.2105 10.9994 81.8456
CA 47.9414 -17.7947 50.7478
CA 28.7322 -17.2922 44.0442
CA 18.5284 -14.8339 62.3553
CA 3.12888 -2.77443 51.1001
CA 14.5687 -18.5556 45.9462
CA 25.1482 -5.93019 61.896
CA 3.83034 -17.522 45.1197
CA 43.3003 -20.5754 43.0943
CA 34.3175 -13.9318 80.2588
CA -13.555 -11.5361 55.1377
CA 22.9571 -9.98328 82.7833
CA 19.2811 12.4826 42.2849
CA 12.4164 10.1363 15.3461
CA 39.6841 -7.32952 36.3683
CA 32.9859 14.4442 67.8711
CA 24.2767 -20.4587 74.9797
CA 12.2444 -32.1353 53.063
CA 32.9249 6.41164 78.0129
CA 35.8407 -18.6485 81.1341
CA 31.3747 -18.395 41.7283
CA 44.028 6.81408 62.5411
CA 26.5755 -9.96704 68.6433
CA 28.9986 2.50876 56.3917
CA 29.888 0.232371 75.2783
CA 19.7798 -10.3813 30.8248
CA 6.99136 -5.23374 54.6039
CA 27.6177 -10.1421 72.9295
CA 18.6035 13.6469 35.7456
CA -2.79547 -1.48061 64.3715
CA 17.1625 5.83022 30.0052
CA 23.4392 -25.6713 38.2569
CA -25.5333 -4.53868 48.0935
CA -3.90393 0.596951 63.7459
CA 22.8138 -13.4637 82.0279
CA 3.09418 -18.1945 63.6693
CA 15.1037 -16.6078 78.3851
CA 23.4827 -37.9482 60.9678
CA 29.3452 -26.7864 56.1311
CA 2.56831 -16.2521 51.3634
CA -12.7299 -8.93996 62.566
CA 12.443 0.722272 30.6376
CA 15.5934 -10.7447 59.6366
CA 6.64457 -19.0039 46.6025
CA 43.0114 -24.671 43.3692
CA 33.6314 -22.3068 63.3561
CA 15.1595 11.2843 31.548
CA 12.9081 -12.8499 40.0099
CA 13.394 -2.57002 45.2391
CA 18.8123 -25.547 60.6706
CA 23.6376 -12.9713 80.159
CA 19.5295 11.9478 10.5398
CA 13.7393 5.23168 29.6527
CA 36.3921 3.30196 75.1523
CA 21.2364 -7.86149 42.4013
CA 45.6391 -12.248 41.9564
CA 21.5537 -9.67759 50.1071
CA 20.5668 16.0348 37.271
CA 22.1367 12.2531 64.6736
CA 36.9303 7.43265 67.3599
CA 35.0695 -17.038 52.5394
CA 12.8889 2.238 28.317
CA 16.5353 -34.0363 65.6403
CA 31.64 2.50671 51.7885
CA 6.9695 -36.1646 62.9063
CA 16.6438 -18.9368 80.7359
CA -24.575 -2.98901 43.6205
CA 42.3757 -2.94336 37.3595
CA 4.0824 -22.8136 55.869
CA 35.7449 -11.0629 46.0763
CA -3.76006 -2.87993 69.0085
CA 35.5894 -10.3375 75.1194
CA 25.9786 -28.3136 63.8325
CA 39.2871 9.25397 60.5655
CA 30.591 5.77707 68.1481
CA 18.1347 -20.4235 70.3669
CA 17.0463 8.5222 13.1485
CA 8.27623 -19.6104 58.5282
