489

CA 22.0059 -14.0365 34.7421
CA 17.1632 7.66724 48.471
CA 23.3218 -13.9049 83.046
CA 10.0447 -3.68895 40.7393
CA 24.8097 -10.7596 71.3416
CA 25.0359 -27.7686 60.9591
CA 10.3424 6.94333 57.5782
CA 30.788 5.29908 45.5098
CA 18.0896 0.431672 35.2036
CA 19.5934 -6.94447 53.4394
CA 24.127 -7.86313 79.2682
CA 25.9145 6.75399 69.9277
CA -8.65403 -23.4776 61.3663
CA -2.52327 8.75673 50.8544
CA 18.8585 -24.5254 53.7558
CA 22.3519 -28.3694 62.5219
CA 7.45702 -5.90668 48.7121
CA 32.578 -17.0347 64.8028
CA 7.87948 0.283439 56.3461
CA 23.24 -28.8367 54.3356
CA 34.3585 -8.03399 52.434
CA 22.8186 13.289 51.0196
CA 38.2502 -4.49462 43.4106
CA 39.551 -20.437 37.987
CA 23.8907 11.0557 51.4787
CA 37.8586 -24.412 56.2886
CA 31.7522 -23.5987 50.5907
CA 25.8585 -13.4947 69.7007
CA 15.7752 -24.4315 68.7901
CA -0.235746 -11.537 54.8417
CA 15.8406 9.87873 42.1662
CA 1.9459 13.1752 44.5357
CA 7.05874 -3.3265 47.7016
CA 34.5343 -17.594 65.5067
CA 20.7144 -3.02673 33.4787
CA 31.1805 10.8457 46.3164
CA 39.608 17.6633 61.0123
CA 17.8426 13.7176 6.89529
CA 22.4324 1.68282 69.0449
CA 39.9459 -16.4321 78.5411
CA 38.9283 -9.25355 65.0652
CA 44.1122 13.4374 65.1635
CA 18.9334 20.1936 60.3956
CA 47.0734 -18.8636 55.435
CA 17.6967 9.22299 43.7854
CA 18.0575 -3.04154 48.0725
CA 39.29 -23.9756 39.9737
CA 39.5125 -6.63849 40.7
CA 38.1937 -19.0769 75.4437
CA 33.9341 -9.29592 41.9478
CA 15.4368 -20.9064 54.3497
CA 15.558 0.332301 31.3021
CA 33.2278 -1.03191 69.9144
CA 21.6042 14.1485 56.3529
CA 3.58594 -4.54689 48.5076
CA 14.5221 -8.72948 50.1096
CA 23.9156 -24.0749 58.4186
CA 26.5036 -24.3849 83.8664
CA 25.5849 -7.05574 68.8859
CA 25.717 -1.76893 89.1415
CA 11.6415 5.38581 58.7233
CA 27.9481 13.5533 47.3455
CA 16.1724 17.0534 66.5036
CA 33.3801 -1.32147 72.3235
CA 24.2304 5.09394 72.1991
CA 19.776 -12.5721 87.6523
CA 26.4017 -23.5727 74.4304
CA 36.2405 8.58677 51.799
CA 12.1863 -28.8348 75.4971
CA 35.9796 -13.8346 75.7265
CA -5.24544 -17.1624 59.9034
CA 7.89785 -15.6359 51.8074
CA 38.9655 2.94456 52.5885
CA 26.5324 -15.541 70.6942
CA 5.85704 -4.31367 41.8035
CA 14.7713 9.23072 56.347
CA 26.7959 12.7061 51.7385
CA 32.6828 -25.6345 47.4885
CA -8.2924 -17.0863 59.0944
CA 32.8696 -0.82219 77.6
CA 8.24641 -4.0586 57.9996
CA 7.70175 -3.55261 41.0092
CA 32.863 -15.9191 43.242
CA 28.7985 -14.5123 40.53
CA 21.8502 -16.204 68.9565
CA 25.5924 -6.06534 24.6923
CA 26.0721 16.0375 64.3578
CA 20.6007 10.2575 56.9681
CA 12.4295 3.56999 48.865
CA 39.6512 -13.4317 66.9436
CA 37.6627 5.43537 69.5255
CA 30.403 -21.1466 58.9348
CA 25.7675 -2.27864 61.9744
CA 31.0695 7.97297 62.7095
CA 33.1974 -30.0935 43.2639
CA 16.7814 6.00597 31.2586
CA 8.91102 -13.241 48.5698
CA 23.0116 4.8091 35.9556
CA 15.7595 -17.5008 60.6924
CA 34.9793 -15.9196 62.8006
CA 36.6709 5.57428 54.1379
CA 12.4304 -34.1865 64.8143
CA 29.9025 4.40303 64.2396
CA -0.0392979 4.98749 54.1995
CA 24.1898 -14.7414 67.8583
CA 20.426 -31.8157 74.0091
CA 27.4247 -0.00934359 89.0261
CA 15.6848 16.7429 61.7784
CA 39.9419 2.77854 72.1709
CA 29.4608 -22.4188 55.419
CA 43.9722 -28.5354 53.664
CA 33.6789 -10.0696 66.7636
CA 31.8392 4.34842 78.3805
CA 7.50875 -15.2942 62.895
CA 36.7473 -10.445 41.3187
CA 25.2007 4.6474 67.9705
CA 23.492 -23.2435 72.6646
CA 12.3447 -8.43724 52.3651
CA 5.48107 -21.7032 51.3661
CA 8.28604 -3.33287 39.0466
CA 15.7199 -4.27775 37.9292
CA 27.0678 -12.5536 67.6335
CA 34.4451 -5.22979 54.1731
CA 20.5441 -11.993 32.0289
CA 26.8203 5.80242 40.701
CA 22.403 -3.08892 44.0156
CA 17.8794 -5.25429 47.4411
CA 8.62518 -5.93389 50.5571
CA 24.4481 -17.0062 54.3395
CA 30.278 -5.68352 69.376
CA 31.8318 -29.4062 44.6908
CA 31.1453 -19.6016 65.4073
CA 16.3582 10.1927 6.97567
CA 26.5611 -4.10401 60.6878
CA 38.7883 -9.27334 70.0294
CA 17.3087 -36.8449 71.1628
CA 9.20711 -1.10869 47.7712
CA 27.1477 -12.2055 49.3997
CA 40.7385 -11.6434 73.3349
CA 2.54655 8.93207 46.8874
CA 8.36114 -3.36001 52.7223
CA 30.4948 1.53123 59.7529
CA 17.0184 -28.5741 65.1055
CA 36.0948 -21.457 37.1361
CA 36.4076 -0.695311 41.3569
CA 36.694 -3.89084 62.7114
CA 8.98266 -15.295 43.3839
CA 16.1865 -7.90913 41.5699
CA 14.0695 8.97458 33.087
CA 40.8352 11.0253 66.1934
CA 29.7098 -12.9339 83.9625
CA 45.3902 -11.2642 59.4821
CA 5.28489 -2.52876 42.9657
CA 3.79094 2.00679 51.6833
CA 18.6614 12.5975 41.1233
CA 34.3222 5.9324 70.8302
CA 6.72039 -0.522604 42.8446
CA 15.9373 8.954 58.6768
CA 36.1499 -3.1262 40.9019
CA 30.6595 -23.8656 58.1335
CA 39.4886 3.92186 55.4287
CA 29.8256 8.20294 45.777
CA 2.3666 -4.06168 57.3137
CA 25.5666 13.227 43.464
CA 28.9864 -5.68471 22.1096
CA 36.4475 -17.7431 62.0954
CA 40.6772 -30.8067 51.5001
CA 6.52326 -1.82712 60.0402
CA 17.8163 5.37494 6.19467
CA 40.3763 -30.88 49.496
CA 36.17 -22.3365 50.7385
CA 6.54203 -10.8419 60.0417
CA 35.3786 -3.19742 74.613
CA 41.9901 -24.3785 45.9784
CA 39.671 -20.528 46.9948
CA 20.3306 -8.28658 17.0859
CA 35.729 -23.3237 48.6979
CA 28.3832 11.1419 50.6684
CA 20.8627 -17.3701 70.9438
CA -4.40757 -17.2735 70.1576
CA 25.0881 -26.033 55.493
CA 20.9857 -16.0571 39.9569
CA 19.4166 -2.86312 43.5771
CA 23.5287 -8.92097 20.4066
CA 15.0803 -14.6256 57.4032
CA 42.1731 -17.7716 51.4315
CA 32.4601 -12.5093 60.3171
CA 30.5639 12.941 79.4412
CA 45.1962 3.79119 59.5181
CA 14.2074 -33.5075 74.7143
CA 31.1165 0.779219 85.878
CA 40.3085 -25.887 49.9404
CA 32.4478 -7.70772 62.9126
CA 19.6516 25.7386 55.9102
CA 2.77907 3.74649 48.6895
CA 20.0111 10.4301 10.6498
CA 20.5531 5.51809 27.7012
CA 12.8524 8.02028 56.7944
CA 11.718 1.32478 32.7981
CA 16.7164 -23.008 54.6891
CA 39.4333 -4.56539 46.7627
CA 31.4953 7.91224 82.9563
CA 36.1748 -0.411981 45.9501
CA -8.93596 -18.8326 59.4123
CA 35.4273 5.83051 62.4784
CA -7.92503 -14.6724 65.0907
CA 42.9113 3.90257 49.4516
CA 23.7526 -10.6703 57.8807
CA 4.70899 -22.1848 44.1426
CA 18.3205 -7.29596 52.2114
CA 11.1551 -28.1368 54.616
CA 16.2682 -9.66487 26.0497
CA 49.3318 -8.23979 57.3505
CA 39.821 14.34 64.721
CA 9.13985 -11.7169 50.171
CA 23.2703 -8.09434 54.0548
CA 20.0793 10.1261 12.8549
CA 39.1491 2.5483 58.7121
CA 23.214 -15.6275 77.8285
CA 38.604 -2.98948 78.2624
CA -7.12274 -17.4221 60.5293
CA 21.8065 8.89757 34.4069
CA 39.9206 -22.8215 45.2582
CA 17.2872 6.98635 5.2497
CA 24.3008 15.3497 54.2125
CA 37.3324 -19.3101 37.4774
CA 21.6583 -0.131796 62.2655
CA 38.1885 -17.3896 39.1319
CA 38.9271 -18.9864 44.6713
CA 44.1011 -27.1194 52.482
CA 17.7417 -33.3044 69.0935
CA -6.01143 -16.4234 68.7074
CA 14.6689 -34.2872 67.1138
CA 29.0514 1.48006 48.4604
CA 22.4406 -2.89232 60.9544
CA 37.4774 -0.00925084 72.6717
CA 28.994 14.4119 50.9874
CA 41.5992 -12.9276 57.588
CA 18.1217 23.372 57.1582
CA 40.5147 -14.1352 62.0149
CA 18.5626 -34.1591 71.0618
CA 4.82258 -10.9924 62.0362
CA 38.694 -25.8257 38.7699
CA 46.3663 -17.9812 52.4871
CA 36.608 1.2224 52.3819
CA 16.4472 -16.974 58.507
CA 19.5125 11.2425 52.7261
CA 12.9338 8.96776 18.8982
CA 24.6443 8.80823 51.0498
CA 20.7442 -28.6676 50.6436
CA 28.2556 -13.994 47.6178
CA 15.9317 -19.0508 46.8181
CA 14.9314 -10.007 40.2082
CA 21.8179 -10.6005 30.9865
CA 34.2645 -16.7792 42.3077
CA 28.577 0.583703 58.7611
CA 28.2254 -22.8133 56.874
CA 26.3237 4.42453 65.6901
CA 32.4678 -10.3395 65.2661
CA 19.4361 -2.15757 35.6708
CA 16.9622 -12.5752 58.5289
CA 24.0299 -20.5467 66.8275
CA 25.2478 14.9974 47.9674
CA 35.5252 -24.8572 44.8828
CA -0.30943 -13.564 58.0562
CA 19.1237 -24.2535 61.6395
CA 27.6249 -13.1075 71.5812
CA 26.0031 -31.224 78.4988
CA 20.9644 -12.679 59.6159
CA 32.3994 3.92586 67.5533
CA 24.7855 -16.4285 39.4109
CA 17.8239 8.87802 18.0806
CA 29.9541 -15.0278 82.6311
CA 30.7737 -19.1226 52.506
CA 25.8803 -28.6187 53.3347
CA 43.1565 10.2238 64.7507
CA 22.9501 -15.1324 53.4927
CA 21.9919 -3.68876 64.6448
CA 24.8925 -15.5766 83.2997
CA 37.1881 3.51565 68.241
CA 25.2328 -28.4568 78.2926
CA 32.7542 11.4267 65.7863
CA 3.7889 -38.6899 66.7397
CA 22.5677 -19.1047 62.8617
CA 33.6423 -11.3997 38.9875
CA 2.54685 -10.1981 59.8989
CA 23.977 8.18218 65.9531
CA 51.217 -11.6657 57.7129
CA 31.6462 -24.6068 44.5865
CA 24.4252 -12.781 70.6642
CA 9.54795 -6.56618 42.0447
CA 26.2314 -8.64512 87.8443
CA 14.8844 6.62312 37.3613
CA 8.99686 -32.3124 66.3491
CA 17.6824 -23.6507 63.3285
CA 30.0196 -18.6232 71.946
CA 28.0246 11.3955 64.5394
CA 23.2281 -25.7269 76.8483
CA 31.8842 -7.45988 54.5871
CA 6.35335 -2.26292 41.3112
CA 13.5191 -15.219 56.3162
CA 18.065 -25.8486 68.3243
CA 22.6405 -0.0818253 70.7031
CA 0.0593856 0.48918 49.5292
CA 25.0143 -0.23821 60.4702
CA 10.3496 -4.873 36.7939
CA 21.0411 -23.579 55.6694
CA 14.6434 9.74252 12.8584
CA 33.4467 -2.71091 38.1998
CA 13.1098 -31.1465 75.208
CA 44.462 -11.4321 54.5239
CA 1.46709 -15.1469 62.1171
CA 15.6774 -12.8865 80.5937
CA 12.6867 -12.5428 59.4476
CA 22.1885 -26.5339 84.9987
CA 46.0437 -18.2551 47.1088
CA 36.4843 -24.4543 54.1737
CA 13.8806 11.0657 54.5839
CA 40.7006 -16.9977 55.095
CA 26.2644 -29.5569 74.6696
CA 32.8394 12.5905 78.4461
CA 34.7061 -19.0705 33.894
CA 13.1378 -32.4846 70.3657
CA 19.7184 -3.13174 57.3181
CA 36.5698 -20.1585 46.2834
CA 30.2145 -13.3349 64.418
CA 31.3224 -21.2818 48.9437
CA 28.8664 7.15363 78.7023
CA 18.9015 -3.41547 41.0516
CA 29.4965 -23.2658 44.1434
CA 22.4065 -11.5352 86.3123
CA 22.3702 7.07019 66.7189
CA 19.537 -9.77411 57.0346
CA 35.4168 4.53113 46.8195
CA 33.9781 -14.0209 63.79
CA 9.16406 -2.07294 59.2424
CA 15.8425 -6.28663 46.0371
CA 13.7117 2.90862 33.6626
CA 37.3937 4.49542 71.4581
CA 36.0036 3.13888 49.3209
CA 0.834627 3.16608 49.6838
CA 33.6609 0.75543 72.8253
CA 37.3344 -1.90877 42.4813
CA 12.8958 -17.4915 50.3982
CA 34.1525 -6.56576 58.0071
CA 40.0312 -23.6899 37.6569
CA 18.7315 7.66517 15.2441
CA -0.00521377 3.85747 47.7098
CA 26.8221 -25.998 56.6792
CA 23.9035 -31.4792 52.1282
CA 38.025 -30.5321 52.0971
CA 19.945 -9.33463 26.4816
CA 10.6366 -8.01834 50.672
CA 30.7275 -10.052 51.8246
CA 20.1071 9.30625 25.3402
CA -10.8459 -20.3429 63.1755
CA 24.5759 -9.76347 29.1223
CA 24.626 -17.7643 50.6957
CA 20.8805 -5.19794 79.9587
CA 27.6577 -13.9049 84.5686
CA 35.926 4.12504 44.7593
CA 47.7911 -22.8155 51.4332
CA 4.66723 -5.9733 59.5465
CA 33.0017 -22.001 44.1382
CA 38.4343 -23.3482 48.1645
CA 13.1554 -31.0474 64.6387
CA 19.1546 7.53235 40.8037
CA 39.0042 -14.9738 53.5526
CA -11.008 -21.5031 64.924
CA 33.1571 -16.4581 46.1504
CA 10.7522 -15.4745 61.489
CA 40.387 3.95804 46.5369
CA 22.2656 -24.7116 60.3416
CA 17.9677 -6.21272 49.5418
CA 19.6075 19.207 56.8331
CA 4.69449 3.88085 46.9068
CA 5.65745 -22.0276 45.6994
CA 35.8289 -20.0905 49.5198
CA 17.6511 -12.2696 88.5748
CA 27.2288 -15.0937 81.7682
CA 26.2603 -13.8403 26.806
CA 13.5058 -32.3406 79.4026
CA 10.1483 -37.1701 66.9273
CA 25.4735 -12.5961 79.617
CA 46.0589 -27.5273 54.557
CA 13.4184 -38.1104 67.7304
CA 35.0377 -7.09811 63.3387
CA 36.4517 -15.8836 54.611
CA 28.4109 11.1108 75.3007
CA 14.7572 -20.5765 69.2366
CA 25.1275 6.85798 67.1925
CA 18.2825 -26.0519 62.9795
CA 29.8032 -9.82709 63.0153
CA 19.7078 3.76147 22.3153
CA 10.9016 -1.56756 58.9185
CA 13.1388 -21.4153 71.2772
CA -10.7991 -18.3852 64.2625
CA 33.4313 -3.00823 53.6124
CA 32.5057 7.48028 45.5691
CA 5.86768 -37.866 65.7845
CA 14.6915 11.4019 14.8524
CA 39.1957 0.441558 46.8614
CA 31.8534 -1.02852 47.4332
CA 7.19405 -17.689 49.906
CA 12.0494 -20.8462 46.4901
CA 19.1061 -13.6269 56.0745
CA 11.1994 -27.552 62.82
CA 38.1283 5.37528 66.3229
CA -9.87936 -22.562 62.3667
CA 26.5373 -13.92 66.1989
CA 21.6658 -15.9791 48.9703
CA 17.8094 6.87546 18.8346
CA 5.3852 -17.841 64.7669
CA 36.9675 3.05837 47.2412
CA 22.6347 -34.6258 73.6362
CA 17.4213 7.52143 40.0097
CA 36.0013 1.62431 45.8422
CA 28.8635 -20.2988 54.6318
CA 25.1587 -9.304 75.0954
CA 32.1222 -7.3475 48.5826
CA 11.1357 0.895915 30.1979
CA 30.9967 -3.98398 88.0191
CA 14.7591 -22.9983 70.3142
CA 29.9745 -0.959468 63.8204
CA 17.1672 -33.9588 67.5158
CA 31.7946 -12.4331 40.4333
CA 24.4733 -6.92555 55.168
CA 28.5927 -17.093 57.3285
CA 3.48165 -5.55029 61.9095
CA 40.5347 -15.0047 74.9707
CA 41.8286 -15.995 63.4573
CA 27.1646 -13.6288 61.1684
CA 30.0221 7.07715 86.2353
CA 12.6568 -26.5285 54.9213
CA 34.3992 -26.1967 47.922
CA 43.9706 -14.0448 47.9215
CA 21.6935 -28.2593 81.2798
CA 22.618 -22.9674 67.1959
CA 20.8852 -25.8054 66.4079
CA 16.0434 -13.2152 34.0075
CA 32.2283 -9.50723 42.6279
CA 39.2126 2.4379 61.1695
CA 13.1111 -6.20176 41.0338
CA 25.2396 -26.445 57.7104
CA 15.4673 -16.5571 54.9392
CA 35.7297 -22.8055 46.6199
CA 23.0374 8.70231 37.6887
CA 20.7654 6.63132 40.7015
CA 5.84572 1.86791 62.1767
CA 1.87896 1.54023 46.8311
CA 36.8047 -17.2886 48.3838
CA 18.7418 -15.9578 77.33
CA 21.2055 7.8401 27.0245
CA -2.31207 -14.8413 56.4136
CA 15.1808 23.0637 58.7523
CA 30.9565 13.882 73.0808
CA 47.4951 -20.9853 56.4055
CA 18.4563 8.4671 38.8401
CA 20.0904 15.5749 60.0413
CA 34.2551 -12.1897 55.2805
CA 40.3643 -14.9594 50.6053
CA 28.3476 12.2841 41.2843
CA 25.4863 -6.02936 72.1211
CA 31.3318 -19.2432 58.6604
CA 37.6305 -10.8847 63.5525
CA 11.3344 7.93416 59.2466
CA 32.2435 -22.8482 58.3987
CA 37.7178 -1.47402 74.1548
CA 42.6636 -30.3332 48.696
CA 19.8609 -15.7572 80.2397
CA 43.2394 3.17992 70.816
CA 30.0545 -24.2084 47.103
CA 40.52 5.54993 51.9526
CA 27.9386 -23.2443 65.2204
CA 3.66953 2.80807 45.1019
CA 28.3533 -11.3216 82.1314
CA 25.4945 -9.9725 85.8313
CA 30.0674 -24.3952 55.0499
CA -6.2663 -18.3671 55.9257
CA 29.2603 5.26268 85.1116
CA 40.3233 7.9456 60.3848
CA 26.0187 -9.65598 23.6164
CA 1.82427 -9.6342 56.6529
CA 23.2784 -12.3957 78.0208
CA 42.9298 3.43636 59.5674
CA 20.5779 -8.61957 19.4555
CA 32.2183 -16.1878 62.6201
CA 5.16074 -14.1881 63.0752
CA 21.0564 -8.5491 31.785
