489

CA 22.0059 -14.0365 34.7421
CA 20.0162 12.6712 50.9898
CA 29.6624 -8.06794 64.6776
CA 12.5011 1.44176 55.9707
CA 45.5573 8.48022 54.4835
CA 11.1176 9.26807 60.183
CA -6.02457 -17.325 65.4618
CA 23.921 -12.9369 45.721
CA 39.9293 9.81571 59.589
CA 39.7176 -8.17725 37.3082
CA 34.9782 4.49241 71.9782
CA 25.9145 6.75399 69.9277
CA 23.564 -26.3438 76.4187
CA -2.52327 8.75673 50.8544
CA 18.8585 -24.5254 53.7558
CA 45.4278 -18.6201 59.3435
CA 4.40415 -7.97983 58.1337
CA 20.9609 -23.8657 68.7524
CA 41.4659 -18.6295 57.4007
CA 15.9678 -20.0481 52.7976
CA 34.3585 -8.03399 52.434
CA 42.5547 2.11312 57.9185
CA -1.93192 9.34899 48.4097
CA 28.369 2.2191 81.4474
CA 23.8907 11.0557 51.4787
CA 12.1191 -18.4652 62.5744
CA 31.7522 -23.5987 50.5907
CA 33.8648 -18.6583 49.0144
CA 11.4182 9.4778 10.1024
CA 21.2105 10.3871 48.1052
CA -2.15672 -12.5673 60.1812
CA 14.1193 7.08865 65.4766
CA 27.446 -17.4608 62.2078
CA 36.6707 -15.8082 61.5733
CA 20.7144 -3.02673 33.4787
CA 31.1805 10.8457 46.3164
CA 32.6149 3.09248 82.9289
CA 17.3647 13.8082 44.3316
CA 34.8158 8.65758 64.4371
CA 28.505 -12.0407 70.5374
CA 33.8794 -3.25947 55.8806
CA 26.8623 -14.3529 26.6506
CA 24.8761 -34.3212 79.4146
CA 11.3494 9.11571 65.2371
CA 35.9089 1.87096 52.3441
CA 21.0105 7.72715 68.1467
CA 39.29 -23.9756 39.9737
CA -8.09175 -15.5243 60.4336
CA 19.2823 16.8468 46.108
CA 33.9341 -9.29592 41.9478
CA 21.845 -23.99 65.5251
CA 15.558 0.332301 31.3021
CA 42.2888 -8.59975 57.1802
CA 21.6042 14.1485 56.3529
CA 40.8058 -9.69248 40.9069
CA 14.5221 -8.72948 50.1096
CA 23.659 -2.49058 38.0497
CA 15.9148 -26.2474 71.2634
CA 25.6147 11.8385 44.2053
CA 22.1327 -15.8023 80.037
CA -1.96238 -15.4982 58.1194
CA 27.9481 13.5533 47.3455
CA 6.89932 -12.3119 58.4996
CA 35.5024 16.5206 61.705
CA 24.2304 5.09394 72.1991
CA 35.1358 -13.6847 58.8135
CA 26.4017 -23.5727 74.4304
CA 42.73 -6.12928 53.7257
CA 12.1863 -28.8348 75.4971
CA 22.8682 -5.6118 66.1714
CA 19.1774 -12.6155 41.7344
CA 32.254 2.07226 58.0409
CA -1.0565 -0.832305 46.3793
CA 26.5324 -15.541 70.6942
CA 34.4886 -26.8787 51.7789
CA 34.6264 -5.89859 52.1565
CA 42.8444 -33.3541 43.3517
CA 30.4326 -10.0405 66.1218
CA 6.55555 0.570163 40.0919
CA 31.2783 -3.28384 60.0511
CA 34.0587 -22.3552 63.5954
CA 38.9937 13.7731 67.2871
CA 27.1568 9.07177 49.3638
CA 31.3438 -7.81884 59.308
CA 10.6343 -5.25235 41.4022
CA 17.4491 13.4417 14.7888
CA 26.0721 16.0375 64.3578
CA 30.5124 -25.5147 46.1451
CA 25.2181 -7.34719 74.932
CA -0.107726 -1.38329 49.5718
CA 14.2242 -4.08496 40.7086
CA 30.403 -21.1466 58.9348
CA 28.1127 -7.83687 49.866
CA 25.6585 -25.9954 84.4802
CA 34.7623 13.2468 64.1113
CA 16.7814 6.00597 31.2586
CA 24.5001 -15.8775 47.8356
CA 33.6911 -12.8097 57.8695
CA 12.6978 13.203 7.33209
CA 18.2013 -9.10699 55.7333
CA 29.0466 -15.8165 75.2517
CA 28.4316 -15.1194 72.3447
CA 18.422 -6.99482 50.7455
CA -0.0392979 4.98749 54.1995
CA 0.915613 -12.1923 53.3525
CA 37.8526 -3.54832 46.1126
CA 2.03367 13.3825 48.6972
CA 15.6848 16.7429 61.7784
CA 41.1671 8.98427 70.4031
CA 33 0.359156 48.8444
CA -5.61911 -14.6606 56.3002
CA 33.6789 -10.0696 66.7636
CA 4.92643 -2.81139 40.2792
CA 47.8911 -19.0332 54.1144
CA 22.2109 -8.29854 24.8593
CA 44.4383 -27.7242 50.7944
CA 36.4888 -23.7572 61.7158
CA 27.9576 9.22875 76.7803
CA 23.1666 -11.4715 39.9544
CA 42.3907 13.3667 60.8821
CA 27.7064 -1.9619 81.7873
CA 31.0811 -25.3969 57.9965
CA 34.4451 -5.22979 54.1731
CA 35.5791 9.25973 69.5944
CA 26.2296 -1.02661 58.0684
CA 2.16419 -12.7388 56.3751
CA 37.3448 -6.25751 38.5621
CA 32.0069 -1.18042 83.9528
CA 24.4481 -17.0062 54.3395
CA 9.21576 -16.1858 48.7326
CA 24.0101 -9.33809 39.0175
CA 37.4171 -8.26131 56.7667
CA 16.3582 10.1927 6.97567
CA 42.6357 -20.6202 53.1427
CA 27.5016 -9.68994 52.632
CA 16.1658 8.28657 14.8734
CA 19.458 1.41089 54.5564
CA 26.6965 -24.976 70.2928
CA 38.908 4.20893 40.9869
CA 36.9289 -26.7246 46.5224
CA 46.1555 -11.8746 62.1527
CA 27.7193 4.53609 78.981
CA 21.0244 -18.4353 43.5393
CA 8.77206 10.5086 8.82482
CA 33.0271 7.47621 64.6665
CA 8.40982 -6.84498 39.6612
CA 26.3041 -4.17436 78.6953
CA 44.3406 -7.08335 55.9393
CA 20.3614 7.73843 51.9594
CA 23.7307 -5.3974 44.4938
CA 32.3892 -9.06003 53.1171
CA 45.3902 -11.2642 59.4821
CA 11.258 9.79492 35.1176
CA 3.79094 2.00679 51.6833
CA 26.6324 8.50305 81.6989
CA 34.3222 5.9324 70.8302
CA 12.5695 -8.69253 54.6645
CA 15.9373 8.954 58.6768
CA 13.2749 12.3493 57.5082
CA 24.7024 -3.97418 66.0117
CA 17.5094 -8.43016 39.1409
CA 44.6047 7.60824 65.5786
CA 44.1261 5.82535 71.7205
CA 17.7521 -12.3865 36.8841
CA 28.9864 -5.68471 22.1096
CA 36.4475 -17.7431 62.0954
CA 40.6772 -30.8067 51.5001
CA 21.2578 -12.9238 56.0591
CA 37.8231 7.18569 61.4638
CA 26.0169 -13.707 69.4806
CA -2.30697 3.73787 57.23
CA 26.0215 -2.86718 64.9299
CA 24.2141 9.93865 80.3139
CA 19.9553 -11.7224 28.8656
CA 28.0363 -18.3482 81.0977
CA 22.5876 -4.39847 26.0755
CA 9.05946 0.411993 57.8215
CA 41.1922 12.3476 66.8755
CA 48.8938 -11.2185 62.882
CA -4.40757 -17.2735 70.1576
CA 31.8058 0.688842 62.6761
CA 20.9857 -16.0571 39.9569
CA 19.4166 -2.86312 43.5771
CA 17.9029 -22.5723 65.1547
CA 27.1562 1.26244 88.5061
CA 44.1911 -24.7804 53.9328
CA 29.2126 12.5867 50.2828
CA 39.9476 -8.89918 73.905
CA 13.4837 -4.57891 55.5803
CA 14.2074 -33.5075 74.7143
CA 31.1165 0.779219 85.878
CA 23.0766 10.7206 48.5593
CA 34.4086 -11.437 71.5382
CA 28.8474 -1.52951 47.3833
CA 34.5798 -34.376 50.1032
CA 20.0111 10.4301 10.6498
CA 20.5531 5.51809 27.7012
CA 47.8251 -11.4651 59.0254
CA 9.99352 -5.65888 56.2294
CA 22.6254 -3.75946 54.8629
CA 23.0319 1.47802 39.3775
CA 24.2344 -23.991 67.8792
CA 21.2721 -2.58369 55.1336
CA 26.5291 -16.8631 77.9144
CA 23.7445 11.7312 65.6353
CA 7.93695 -13.8359 58.9932
CA 42.9113 3.90257 49.4516
CA 22.8795 0.520049 34.4014
CA 11.6123 -18.4614 56.2983
CA 42.5484 -4.16804 74.9149
CA 7.09808 -14.6191 51.385
CA 12.2194 12.1337 52.7578
CA 4.63338 -17.3422 62.2254
CA 36.2628 3.99169 58.5926
CA 18.4461 9.87904 62.9471
CA 23.2703 -8.09434 54.0548
CA 39.7283 14.0092 62.6993
CA 39.1491 2.5483 58.7121
CA 26.428 -12.231 74.0246
CA 31.3419 -26.0073 55.2599
CA 33.0803 -4.73346 59.1172
CA 26.4117 11.5797 51.3503
CA 39.9206 -22.8215 45.2582
CA 3.58991 0.0117675 47.3253
CA 12.656 -12.7713 52.8152
CA 34.6283 -9.58702 71.4013
CA 10.1878 -10.0164 48.9899
CA 32.2557 3.7257 53.1769
CA 17.1987 0.870189 73.1994
CA 44.1011 -27.1194 52.482
CA 19.4067 8.77681 16.3166
CA 34.172 -18.0707 66.5088
CA 14.6689 -34.2872 67.1138
CA -12.6579 -19.0668 60.5475
CA 44.1086 -31.2788 45.7896
CA 23.7311 6.465 73.8066
CA 27.1542 -9.31545 38.4514
CA 15.4729 3.77687 65.7524
CA 9.38982 -38.0832 71.2599
CA 40.5147 -14.1352 62.0149
CA 18.5626 -34.1591 71.0618
CA 18.8615 -2.64145 32.0698
CA 28.7209 -14.1687 32.2278
CA 44.3974 5.88433 66.9469
CA 30.4294 6.00749 68.1942
CA 44.5165 4.30358 69.4405
CA 33.6402 -23.8531 50.6109
CA 38.7541 5.70002 61.9891
CA 7.07085 -7.88048 60.1391
CA 20.7442 -28.6676 50.6436
CA 21.7713 -8.64445 27.609
CA 19.0634 -18.2616 56.0432
CA 28.3871 15.9116 47.3695
CA 42.348 -22.2388 45.3618
CA 32.0572 9.37942 45.3647
CA 49.1543 -7.14653 68.3335
CA 28.2254 -22.8133 56.874
CA 38.7265 -18.2634 57.0615
CA 13.2657 -0.136589 57.0792
CA 49.6851 -10.4058 64.6509
CA 44.0635 -27.3622 45.0805
CA 10.2595 -29.6702 73.6222
CA 32.3115 -4.00494 56.5971
CA 12.5154 -1.75171 42.081
CA 10.1649 -17.1627 54.7952
CA 36.0049 -15.4156 58.3871
CA 23.126 12.2811 40.644
CA 26.0031 -31.224 78.4988
CA 36.7092 -20.4157 61.6502
CA 47.2943 -24.4527 56.695
CA 5.12867 -7.957 62.4659
CA 18.6115 12.5507 47.3218
CA 16.4857 15.9358 56.8634
CA 22.7388 6.43769 49.0126
CA -2.36604 -3.15934 50.8552
CA 43.1565 10.2238 64.7507
CA 19.7533 -26.2746 81.7358
CA 20.8006 9.16813 11.865
CA 34.2077 -1.01214 48.5917
CA 11.9539 -2.43186 57.3949
CA 19.8725 -1.20257 67.6151
CA 23.6228 -32.3946 79.358
CA 45.8523 -17.2263 65.7322
CA 16.4444 11.7068 56.1051
CA 25.4168 -13.3277 29.4043
CA 41.4875 -28.8941 46.0666
CA 18.3727 2.21124 7.02039
CA 22.1185 -13.1759 40.1338
CA 29.7195 11.1609 43.9863
CA 3.08287 5.52366 64.0805
CA 19.5784 -2.87874 53.2522
CA 24.7232 -14.0331 53.7602
CA 32.5541 -7.30088 50.579
CA 23.0675 -15.5623 50.2065
CA 25.8144 -4.23432 67.7733
CA 34.1751 -15.2006 57.1063
CA 18.926 11.5644 55.699
CA 23.2948 -15.964 73.8867
CA 43.4946 -34.8375 42.516
CA 36.0286 0.957179 62.4695
CA 37.3713 -3.79009 56.1369
CA 0.809904 -4.20019 51.7537
CA 23.735 4.12069 51.5857
CA 29.5005 -1.27242 80.3431
CA 27.1806 -20.3071 61.2696
CA 19.5536 -11.5435 30.6957
CA 21.1668 -11.461 37.8453
CA 16.2696 18.8798 60.1946
CA 35.0592 -2.93768 38.2696
CA 15.0641 -32.8373 68.4359
CA 4.76344 -13.4159 56.7066
CA 23.0492 10.1763 83.5664
CA 30.6827 -10.1204 40.3098
CA 18.7408 13.399 56.5578
CA 32.4256 -7.30208 20.98
CA 23.8572 5.83832 38.5325
CA 16.5115 -28.0636 74.5717
CA 15.1858 5.35671 6.50339
CA 26.5379 14.0827 38.9737
CA 23.735 -14.2939 69.495
CA 23.8624 -13.0803 55.3175
CA 30.4466 -19.781 66.675
CA 22.5515 -16.4058 64.7037
CA 4.60104 0.167715 58.8378
CA 31.4813 12.1617 52.3624
CA 25.7683 -19.4015 50.1342
CA 22.2011 -0.855246 65.7101
CA 25.9837 -2.37075 67.8103
CA 21.6778 9.6963 59.4575
CA 29.4965 -23.2658 44.1434
CA 4.53411 0.655973 56.9554
CA 31.8912 -5.75675 38.2917
CA 1.67147 3.35368 48.483
CA 18.9595 -0.372161 78.24
CA 41.0966 2.78721 61.9411
CA 21.4883 -19.2126 66.3737
CA 24.2486 -29.3123 75.9502
CA 23.329 10.7802 62.4248
CA 38.8066 11.3298 61.0135
CA 22.6947 7.05528 40.3163
CA 41.6594 17.9958 61.2703
CA 38.9936 -25.9145 47.0244
CA 39.7005 -5.84964 46.673
CA 17.3374 -21.8892 57.1419
CA 40.1733 0.419088 50.9493
CA 20.6185 6.90138 76.9266
CA 36.6383 -12.8715 42.3409
CA 21.3165 -17.8648 57.6739
CA 13.9273 -18.926 51.7526
CA 36.6623 1.47348 48.8357
CA 9.3007 -0.857107 38.0354
CA 19.945 -9.33463 26.4816
CA 8.79776 -2.6958 38.6705
CA 23.9383 5.89983 42.5696
CA 33.44 -27.7391 47.9506
CA 7.93287 0.369454 54.6129
CA 40.6506 -23.7104 36.6641
CA 41.3894 -33.0293 45.1322
CA 16.3713 -21.4889 71.0497
CA 27.6577 -13.9049 84.5686
CA -10.094 -19.7884 60.1642
CA 47.7911 -22.8155 51.4332
CA 28.2476 -3.03572 23.5618
CA 36.8803 -13.7755 56.0932
CA 22.5007 -22.2376 66.0399
CA 22.3512 -26.7899 56.089
CA 44.3135 -22.6737 43.9001
CA 15.9237 2.27892 68.4881
CA 45.082 -12.598 66.9562
CA 12.3052 -8.44796 57.7921
CA 10.7522 -15.4745 61.489
CA 40.387 3.95804 46.5369
CA 17.7922 -2.00613 39.7297
CA 41.8177 -9.2415 35.1711
CA 49.3896 -25.003 55.6024
CA 25.6866 -12.3467 70.9481
CA 17.481 4.77878 63.8846
CA 16.2393 -3.0473 36.1364
CA 35.4549 -10.0364 73.0941
CA 46.4227 -9.51905 57.4951
CA 32.7713 -5.88112 65.1724
CA 11.3842 11.0118 8.09504
CA 10.1483 -37.1701 66.9273
CA 26.7371 -18.9186 52.2977
CA 32.093 7.87847 82.9947
CA 42.8611 -11.6445 65.6112
CA -6.04021 -18.6543 58.4238
CA 36.4517 -15.8836 54.611
CA 28.4109 11.1108 75.3007
CA 43.7558 -16.6176 52.3728
CA 18.3958 -23.1286 71.7651
CA 19.2357 3.60064 43.1244
CA 29.8032 -9.82709 63.0153
CA 19.7078 3.76147 22.3153
CA 25.1001 -9.54638 55.1401
CA 38.9184 -12.4162 41.1519
CA 35.9064 -32.128 50.9854
CA 43.785 7.8862 75.0265
CA 7.81876 -18.8798 67.4631
CA 34.7424 6.69052 51.7587
CA 17.6638 7.53447 64.9575
CA 39.1957 0.441558 46.8614
CA 36.0228 -1.84423 40.2001
CA 22.2196 -15.3384 81.7761
CA 9.7382 -3.17206 36.9388
CA 38.21 -13.8934 63.4216
CA 46.5184 5.80744 67.1042
CA 40.8536 -33.3747 49.8488
CA 21.6006 -19.2085 79.7894
CA 26.5373 -13.92 66.1989
CA -0.0913417 2.96308 44.2612
CA 17.8094 6.87546 18.8346
CA 5.3852 -17.841 64.7669
CA 36.4996 0.956225 76.0178
CA 16.6274 -13.4332 30.3477
CA 33.4643 3.82391 69.9945
CA 1.93783 -7.91614 36.9444
CA 24.725 -15.0608 50.8736
CA 26.8131 -12.0412 78.2257
CA 46.5455 -4.78041 56.4994
CA 29.4761 8.6696 80.2676
CA 22.9699 -11.7589 44.3843
CA 12.3316 -9.77507 49.0592
CA 26.8602 6.40619 77.9157
CA 14.2706 9.05358 3.51273
CA 44.1378 -32.8606 44.5932
CA 18.7705 5.01148 76.1625
CA 16.278 -6.81826 42.6457
CA 4.97233 -5.30073 60.2686
CA 4.15595 2.10034 49.2866
CA 46.6037 -13.4972 66.5655
CA 30.4827 -11.6926 71.5457
CA 30.0221 7.07715 86.2353
CA 10.1021 11.8879 56.7184
CA 29.8805 -22.4445 60.7974
CA 25.5613 -18.1722 47.1679
CA 21.6935 -28.2593 81.2798
CA 3.53358 -3.16091 38.3326
CA 27.41 -4.40689 19.8256
CA 19.0847 -12.1394 55.197
CA 30.1304 -8.16442 49.9394
CA 34.3266 -24.0997 59.1532
CA 26.4737 12.3682 45.7727
CA 27.8693 -10.0141 33.7777
CA 21.4405 -7.76666 78.6301
CA 17.208 -10.4268 40.6951
CA 23.0374 8.70231 37.6887
CA 23.4427 10.5643 39.4594
CA 5.84572 1.86791 62.1767
CA 6.27174 -21.4353 70.5129
CA 20.6854 -22.0074 68.3859
CA 21.4113 -2.4117 59.2158
CA 43.0316 -3.71579 73.1844
CA 21.3508 -11.0226 57.6317
CA 33.5034 -31.9531 51.6406
CA 28.3997 8.26123 51.8672
CA 15.5525 -17.1412 51.3239
CA 18.4563 8.4671 38.8401
CA 35.9862 -23.7177 53.7185
CA 34.2551 -12.1897 55.2805
CA 21.0829 -9.35289 66.6084
CA 31.9777 -0.648641 43.4008
CA 16.3381 -6.11662 39.7159
CA 18.7849 -5.05746 55.0715
CA 45.355 -1.46281 71.8166
CA 13.8321 6.07694 33.0121
CA 19.7348 0.867372 31.0124
CA 37.7178 -1.47402 74.1548
CA 42.6636 -30.3332 48.696
CA 19.8609 -15.7572 80.2397
CA 16.5696 -17.8087 58.6747
CA 38.8572 15.5891 61.7456
CA 40.52 5.54993 51.9526
CA 40.3906 5.28408 55.9837
CA 20.0213 -32.8102 76.821
CA 25.4216 -3.91475 55.21
CA 23.6052 -7.16209 21.1968
CA 44.8362 5.75762 55.9526
CA -6.2663 -18.3671 55.9257
CA 19.6135 -11.6037 26.6192
CA 35.0339 -8.18704 38.3471
CA 26.0187 -9.65598 23.6164
CA 11.9544 6.11599 32.1485
CA 23.2784 -12.3957 78.0208
CA 11.4517 -0.576186 56.5734
CA 20.5779 -8.61957 19.4555
CA 38.9446 -8.69706 41.9935
CA 31.1997 -20.5639 62.5766
CA 22.8103 -13.1528 68.3397
