489

CA 42.9222 -4.8112 40.6502
CA 20.0162 12.6712 50.9898
CA 29.6624 -8.06794 64.6776
CA 43.5142 -8.95558 62.4648
CA 45.5573 8.48022 54.4835
CA 17.9806 -25.4994 76.2279
CA -6.02457 -17.325 65.4618
CA 23.921 -12.9369 45.721
CA -8.415 -19.6167 56.707
CA 39.7176 -8.17725 37.3082
CA 15.1345 0.478997 63.3087
CA 14.2276 -0.28437 68.4997
CA 23.564 -26.3438 76.4187
CA -2.52327 8.75673 50.8544
CA 18.8585 -24.5254 53.7558
CA 45.4278 -18.6201 59.3435
CA 35.259 2.29734 43.1663
CA 24.2336 15.0126 55.7206
CA 41.4659 -18.6295 57.4007
CA 39.6381 1.81923 43.5754
CA 25.3157 16.4116 40.8265
CA 37.1665 7.10346 55.9191
CA -1.93192 9.34899 48.4097
CA 28.369 2.2191 81.4474
CA 23.8907 11.0557 51.4787
CA 15.7077 2.24794 76.5476
CA 31.7522 -23.5987 50.5907
CA 33.8648 -18.6583 49.0144
CA 36.6644 0.423895 50.313
CA 21.2985 -7.12527 40.8314
CA 9.86066 -5.13382 56.0455
CA 28.1533 -18.3594 56.9136
CA 20.2634 14.5893 43.8598
CA 4.04261 -21.8271 61.9439
CA 20.7144 -3.02673 33.4787
CA -2.79314 -14.6355 61.3248
CA 27.6471 -20.5745 64.0679
CA 39.7308 8.02221 58.6555
CA 45.8196 -7.54654 66.1437
CA 28.505 -12.0407 70.5374
CA 28.7045 -5.09778 65.4024
CA 35.9702 -13.7568 60.9023
CA 24.8761 -34.3212 79.4146
CA 23.2066 -4.99923 63.2442
CA 33.6541 11.397 67.3474
CA 21.0105 7.72715 68.1467
CA 42.8988 -9.61741 68.8512
CA -8.09175 -15.5243 60.4336
CA 17.6745 13.2681 51.5099
CA 33.9341 -9.29592 41.9478
CA 34.2548 4.87633 49.4013
CA 24.2747 -15.9294 67.7889
CA 42.2888 -8.59975 57.1802
CA 21.6042 14.1485 56.3529
CA 23.011 -25.5034 85.514
CA 34.8429 -33.1683 52.8935
CA 25.2743 -16.8804 84.3793
CA 15.9148 -26.2474 71.2634
CA 30.6485 -6.08156 65.2568
CA 23.489 -2.94674 67.5289
CA -1.96238 -15.4982 58.1194
CA 33.2142 -8.65164 72.371
CA 6.89932 -12.3119 58.4996
CA 28.4244 -0.0539095 50.0983
CA 24.2304 5.09394 72.1991
CA 35.1358 -13.6847 58.8135
CA 26.4017 -23.5727 74.4304
CA 18.6957 -20.6214 82.5919
CA 12.1863 -28.8348 75.4971
CA 16.0905 -11.1046 38.7125
CA 32.1357 -17.0182 34.3695
CA 34.8569 -0.380204 40.9839
CA 41.1698 11.3318 71.3695
CA 26.5324 -15.541 70.6942
CA 34.4886 -26.8787 51.7789
CA 34.6264 -5.89859 52.1565
CA 42.8444 -33.3541 43.3517
CA 8.21664 -4.14917 62.5641
CA 42.5241 -6.08278 74.1952
CA 31.2783 -3.28384 60.0511
CA 34.0587 -22.3552 63.5954
CA 38.9937 13.7731 67.2871
CA 35.9016 9.88718 63.2743
CA 31.3438 -7.81884 59.308
CA 34.0336 1.21345 36.6871
CA 28.118 -4.09388 52.1794
CA 42.0452 20.2581 59.0959
CA 30.5124 -25.5147 46.1451
CA 25.2181 -7.34719 74.932
CA 44.4106 -32.6677 49.6167
CA 14.2242 -4.08496 40.7086
CA 20.0973 -28.8451 85.4709
CA 22.4439 -33.1099 84.4298
CA 29.077 9.21625 79.5117
CA 34.7623 13.2468 64.1113
CA 16.7814 6.00597 31.2586
CA 20.0402 -16.879 84.3008
CA 33.6911 -12.8097 57.8695
CA 25.5828 -20.684 54.8522
CA 32.6436 -4.04601 50.6206
CA 29.0466 -15.8165 75.2517
CA 29.2725 -4.829 53.3636
CA 18.422 -6.99482 50.7455
CA -0.0392979 4.98749 54.1995
CA 51.0483 -25.7818 39.474
CA 46.6776 4.86316 54.9366
CA 2.03367 13.3825 48.6972
CA 23.7587 7.51776 43.8917
CA 41.1671 8.98427 70.4031
CA 33 0.359156 48.8444
CA 37.5948 -9.78941 61.7654
CA 22.0742 -36.5167 79.1448
CA 47.6729 -27.2238 54.8627
CA 47.8911 -19.0332 54.1144
CA 19.702 -22.1153 57.5179
CA 35.6584 -0.239744 61.9103
CA 18.8535 -2.5345 55.4665
CA 27.9576 9.22875 76.7803
CA 15.0525 -21.9145 45.8891
CA 42.3907 13.3667 60.8821
CA 27.7064 -1.9619 81.7873
CA 29.6425 -13.6988 58.547
CA 34.4451 -5.22979 54.1731
CA 35.5791 9.25973 69.5944
CA 10.1985 -15.0706 57.6013
CA 2.16419 -12.7388 56.3751
CA 15.7262 -6.10814 56.0968
CA 20.3314 -18.5526 42.2525
CA 24.4481 -17.0062 54.3395
CA 9.21576 -16.1858 48.7326
CA 17.9871 -6.08063 26.9955
CA 37.4171 -8.26131 56.7667
CA 16.3582 10.1927 6.97567
CA 9.02791 -12.6684 56.1225
CA 18.3212 -2.56724 62.0682
CA 16.1658 8.28657 14.8734
CA 19.458 1.41089 54.5564
CA 26.6965 -24.976 70.2928
CA 28.637 -12.0049 79.1274
CA 18.1094 -17.4332 82.5062
CA 29.6817 1.50998 66.3598
CA 27.7193 4.53609 78.981
CA 31.5254 -32.2435 52.8196
CA 8.77206 10.5086 8.82482
CA 33.0271 7.47621 64.6665
CA 20.2449 13.9362 53.3714
CA 25.3758 5.70327 75.6679
CA 44.3406 -7.08335 55.9393
CA 17.2312 6.3715 33.7727
CA 23.7307 -5.3974 44.4938
CA 32.3892 -9.06003 53.1171
CA 30.8752 -17.5431 36.5135
CA 15.6949 -20.8749 57.2642
CA 3.79094 2.00679 51.6833
CA 26.6324 8.50305 81.6989
CA 19.4909 -27.9751 52.1628
CA 41.5585 11.2485 68.5772
CA 15.9373 8.954 58.6768
CA 13.2749 12.3493 57.5082
CA 10.6796 -26.7592 65.4403
CA 14.3037 10.9358 3.64853
CA 32.7032 13.6087 62.5987
CA 44.1261 5.82535 71.7205
CA 17.7521 -12.3865 36.8841
CA 19.52 12.2927 13.9811
CA 36.4475 -17.7431 62.0954
CA 13.1462 -9.73108 42.9073
CA 21.2578 -12.9238 56.0591
CA 33.9322 -11.9624 52.8305
CA 31.4105 -1.51353 52.2984
CA -2.30697 3.73787 57.23
CA 26.0215 -2.86718 64.9299
CA 23.0136 -23.5475 81.0287
CA 24.8782 -23.8559 84.0843
CA 28.0363 -18.3482 81.0977
CA 22.5876 -4.39847 26.0755
CA 46.1202 12.2312 54.3877
CA 18.8159 -13.9932 36.9126
CA 25.0904 -17.6516 67.9593
CA -4.40757 -17.2735 70.1576
CA 31.8058 0.688842 62.6761
CA 20.9857 -16.0571 39.9569
CA 19.4166 -2.86312 43.5771
CA 19.1966 -3.57716 41.1745
CA 36.5646 -32.0983 46.3172
CA 44.1911 -24.7804 53.9328
CA 29.2126 12.5867 50.2828
CA 39.9476 -8.89918 73.905
CA 21.7479 -16.4512 69.0193
CA 14.2074 -33.5075 74.7143
CA 31.1165 0.779219 85.878
CA 29.2355 -11.8909 61.7251
CA 34.4086 -11.437 71.5382
CA 19.2429 -23.9206 67.544
CA 9.38524 -0.489503 32.5551
CA 20.0111 10.4301 10.6498
CA 20.5531 5.51809 27.7012
CA 3.60848 -11.7111 57.2758
CA 26.9235 -37.5995 82.2619
CA 20.6287 -6.94936 23.4869
CA 13.6423 5.15773 4.64184
CA 29.984 8.98525 49.8882
CA 16.779 -24.2481 71.1531
CA 26.5291 -16.8631 77.9144
CA 23.7445 11.7312 65.6353
CA 41.1735 -7.77158 65.7236
CA 48.4436 12.4391 58.1267
CA 15.9414 -2.35282 32.0778
CA 11.6123 -18.4614 56.2983
CA 42.5484 -4.16804 74.9149
CA 36.1988 -22.7033 60.2385
CA 39.6797 -3.03711 39.6441
CA 31.5868 8.59257 64.0917
CA 38.6905 -26.2724 46.4365
CA 18.4461 9.87904 62.9471
CA 23.2703 -8.09434 54.0548
CA 18.2199 -19.497 65.7589
CA 39.1491 2.5483 58.7121
CA 13.923 -24.0634 65.8478
CA 21.529 9.85825 55.0608
CA 46.3412 -24.877 42.5194
CA 6.89698 -10.5778 63.9819
CA 35.556 -7.25682 55.4593
CA 17.176 2.74677 73.6698
CA 33.849 2.5734 38.127
CA 34.6283 -9.58702 71.4013
CA 10.1878 -10.0164 48.9899
CA 32.2557 3.7257 53.1769
CA 17.1987 0.870189 73.1994
CA 13.5418 -3.62031 51.2555
CA 19.4067 8.77681 16.3166
CA 13.4392 -7.17316 48.3336
CA 46.7074 -28.2702 47.2234
CA 34.237 -1.43712 59.1459
CA 24.3713 -17.8326 78.1286
CA 23.7311 6.465 73.8066
CA 0.18446 -7.62902 56.1006
CA 29.8353 -7.14555 62.7745
CA 24.2864 9.35042 83.0269
CA 35.5638 -11.2245 57.5021
CA 18.5626 -34.1591 71.0618
CA 18.8615 -2.64145 32.0698
CA 28.7209 -14.1687 32.2278
CA 33.3037 9.34368 46.7674
CA 30.4294 6.00749 68.1942
CA 13.9852 1.63742 71.2111
CA 33.6402 -23.8531 50.6109
CA 25.8221 -12.6723 37.1108
CA 7.07085 -7.88048 60.1391
CA 20.7442 -28.6676 50.6436
CA 21.7713 -8.64445 27.609
CA 21.6729 -9.64842 54.0224
CA 36.0662 13.454 46.79
CA 14.491 0.0944319 61.086
CA 32.0572 9.37942 45.3647
CA 44.0174 -7.33054 39.047
CA 28.2254 -22.8133 56.874
CA 39.2465 15.7553 63.6642
CA 20.6789 -4.45964 55.1726
CA 49.6851 -10.4058 64.6509
CA 44.0635 -27.3622 45.0805
CA 1.29118 4.10075 53.2515
CA 32.3115 -4.00494 56.5971
CA 29.8646 -20.2644 60.6265
CA 9.1298 -6.90755 60.9421
CA 26.4416 -11.8437 32.6574
CA 21.8497 -11.2054 73.2551
CA 19.1911 4.4649 69.271
CA 11.5206 -6.28677 40.3821
CA 47.2943 -24.4527 56.695
CA 27.9885 -1.49673 45.4091
CA 18.6115 12.5507 47.3218
CA 16.4857 15.9358 56.8634
CA 37.8249 -24.3747 32.9742
CA 22.9037 -22.8441 84.216
CA 38.7228 -0.409197 50.0544
CA 19.7533 -26.2746 81.7358
CA 20.8006 9.16813 11.865
CA 28.2311 -16.7237 71.0774
CA 44.066 -10.4715 66.988
CA 16.7658 -7.88675 29.4588
CA 37.3955 0.432042 72.346
CA 21.9607 -13.2831 57.9857
CA 16.4444 11.7068 56.1051
CA 29.8602 -2.4273 59.144
CA 28.2004 -23.0689 67.3705
CA 26.3115 -10.7252 60.776
CA 23.7482 3.95031 41.726
CA 11.7924 -4.65015 54.6043
CA 25.7611 -4.57082 25.8794
CA 10.4573 -17.9598 51.7555
CA 24.7232 -14.0331 53.7602
CA 24.6806 15.1573 42.6402
CA 21.3387 -18.8527 77.8268
CA 11.2939 -3.24149 32.3442
CA 46.6786 -14.2473 61.1165
CA 29.9521 -8.22917 78.6154
CA 31.4597 13.3282 59.5985
CA 45.6097 -25.8779 50.5263
CA 21.6223 -16.6066 43.1267
CA 37.3713 -3.79009 56.1369
CA 0.254603 -0.207322 57.5191
CA 33.3933 -23.1477 56.7475
CA 29.5005 -1.27242 80.3431
CA 18.3463 -18.7721 41.6924
CA 25.7455 -9.95217 30.1355
CA 21.1668 -11.461 37.8453
CA 23.6028 -26.7244 80.8508
CA 43.2224 -21.2872 38.4303
CA 22.0432 -5.57119 50.6571
CA 9.53237 -8.7548 64.7503
CA 29.5628 9.71388 66.9132
CA 14.3417 -0.132114 77.1754
CA 19.3093 13.4673 41.5523
CA -2.9065 -15.8423 67.3538
CA 12.39 -23.2411 52.6163
CA 16.5115 -28.0636 74.5717
CA 45.9344 -32.0642 47.2382
CA 26.5379 14.0827 38.9737
CA 23.735 -14.2939 69.495
CA 22.7813 -2.28642 33.56
CA 30.4466 -19.781 66.675
CA 17.4587 -6.12202 38.0453
CA 26.0058 -18.0908 65.9478
CA 27.8865 -13.9469 78.195
CA 30.8161 -12.909 60.3965
CA 22.2011 -0.855246 65.7101
CA 25.9837 -2.37075 67.8103
CA 21.6778 9.6963 59.4575
CA 33.9973 -10.3689 69.7989
CA 4.53411 0.655973 56.9554
CA 38.0923 -7.63878 61.4543
CA 40.7916 -11.9598 61.6228
CA 18.9595 -0.372161 78.24
CA 8.19216 -20.9447 59.6759
CA 21.4883 -19.2126 66.3737
CA 23.7818 9.0975 59.4848
CA 23.329 10.7802 62.4248
CA 33.9272 4.59874 67.2554
CA 18.3814 -10.6222 37.4361
CA 41.6594 17.9958 61.2703
CA 12.5143 -21.6163 55.1606
CA 20.1182 -29.2342 75.8681
CA 17.3374 -21.8892 57.1419
CA 40.1733 0.419088 50.9493
CA 29.0943 -22.262 48.6078
CA 48.0911 -9.64163 71.8502
CA 1.88971 -11.4762 58.4574
CA 39.2761 6.18395 59.9755
CA 33.9402 -33.1658 47.7998
CA 20.7215 -40.4992 78.3077
CA 46.7342 -33.0792 50.5025
CA 8.79776 -2.6958 38.6705
CA 23.9383 5.89983 42.5696
CA 33.44 -27.7391 47.9506
CA 7.93287 0.369454 54.6129
CA 40.6506 -23.7104 36.6641
CA 32.1283 -33.4497 49.7329
CA 16.3713 -21.4889 71.0497
CA 8.46778 1.26494 58.8268
CA 18.4086 -7.7693 43.7665
CA 14.4283 11.788 7.10055
CA 25.704 13.2362 52.6577
CA 1.69837 -0.0752685 47.3473
CA -5.1224 -20.6613 53.5914
CA 22.3512 -26.7899 56.089
CA 44.3135 -22.6737 43.9001
CA 9.39829 -7.08775 43.098
CA 33.7739 -0.13993 46.9129
CA 12.3052 -8.44796 57.7921
CA 10.7522 -15.4745 61.489
CA 24.2752 -6.40541 19.5691
CA 29.5511 -11.2246 74.9149
CA 18.4789 -18.0379 39.522
CA 49.3896 -25.003 55.6024
CA 32.3217 -18.3819 64.8372
CA 17.481 4.77878 63.8846
CA 16.2393 -3.0473 36.1364
CA 35.4549 -10.0364 73.0941
CA 46.4227 -9.51905 57.4951
CA 20.039 -25.414 52.2411
CA 11.3842 11.0118 8.09504
CA -1.12539 -19.6721 70.2638
CA 25.3028 8.86101 84.9749
CA 32.093 7.87847 82.9947
CA 11.7705 2.35755 5.40705
CA -6.04021 -18.6543 58.4238
CA 16.7225 -18.7362 51.6423
CA 18.8649 -15.0063 67.6871
CA 15.9541 -7.52976 40.2928
CA 32.0135 -11.9694 51.3355
CA 22.7563 -14.3401 56.1332
CA 42.8591 -11.1006 70.7259
CA 19.7078 3.76147 22.3153
CA 43.7494 -27.6361 46.9826
CA 24.5913 -3.97908 22.8973
CA 35.9064 -32.128 50.9854
CA 26.7067 -14.5976 74.3984
CA 7.81876 -18.8798 67.4631
CA 34.7424 6.69052 51.7587
CA 17.6638 7.53447 64.9575
CA 39.1957 0.441558 46.8614
CA 36.0228 -1.84423 40.2001
CA 41.4236 0.652927 60.417
CA 9.7382 -3.17206 36.9388
CA 38.21 -13.8934 63.4216
CA 11.6547 -2.83231 51.9416
CA 17.9573 1.35401 66.7668
CA 21.6006 -19.2085 79.7894
CA 37.085 10.7275 72.0455
CA 26.2183 -13.3955 44.6537
CA 17.8094 6.87546 18.8346
CA 5.3852 -17.841 64.7669
CA 36.4996 0.956225 76.0178
CA 37.3738 -23.5471 52.1257
CA 32.9408 -5.59008 42.8688
CA 32.6976 -31.7414 49.3242
CA 41.1664 -26.8407 53.7794
CA 27.8626 -13.0081 35.3513
CA 24.3078 -9.36135 77.615
CA 40.0491 7.94691 73.5504
CA 22.9699 -11.7589 44.3843
CA 41.311 -3.27266 46.0592
CA -1.73475 -18.1363 57.5112
CA 14.2706 9.05358 3.51273
CA 44.1378 -32.8606 44.5932
CA 45.9584 -8.93875 60.9303
CA 36.5762 -3.61946 51.808
CA 31.8434 7.76967 55.9223
CA 28.1425 5.07811 54.7635
CA 46.6037 -13.4972 66.5655
CA 30.4827 -11.6926 71.5457
CA 23.7658 -20.2292 83.0975
CA 31.6433 -12.274 64.1794
CA 29.8805 -22.4445 60.7974
CA 25.5613 -18.1722 47.1679
CA 21.6935 -28.2593 81.2798
CA 3.53358 -3.16091 38.3326
CA 27.41 -4.40689 19.8256
CA 19.0847 -12.1394 55.197
CA 26.3261 -27.4975 79.1597
CA 27.3682 -33.2702 77.9078
CA 15.9703 6.50489 67.1536
CA 34.1878 -1.44108 73.8779
CA 20.071 -34.8463 68.602
CA 31.0291 -7.25747 53.9796
CA 11.8879 -1.90718 65.7225
CA 23.4427 10.5643 39.4594
CA 5.84572 1.86791 62.1767
CA 15.1122 -14.0745 53.5388
CA 20.6854 -22.0074 68.3859
CA 21.4113 -2.4117 59.2158
CA 22.3815 -6.54036 30.8882
CA 20.5248 -25.2263 44.453
CA 33.5034 -31.9531 51.6406
CA 10.255 3.43187 62.0941
CA 15.5525 -17.1412 51.3239
CA 18.4563 8.4671 38.8401
CA 35.9862 -23.7177 53.7185
CA 34.2551 -12.1897 55.2805
CA 39.8524 -29.3015 52.4714
CA 31.9777 -0.648641 43.4008
CA 18.948 -26.1805 44.1394
CA 32.8427 -5.57123 48.8031
CA 17.3036 -23.4654 42.1019
CA 13.8321 6.07694 33.0121
CA 16.1104 -7.28349 50.8098
CA 37.7178 -1.47402 74.1548
CA 28.6455 -23.2095 73.9591
CA 33.8125 -10.4515 63.6602
CA 37.92 0.777003 48.55
CA 38.8572 15.5891 61.7456
CA 40.52 5.54993 51.9526
CA 40.3906 5.28408 55.9837
CA 7.57786 -17.9215 54.6406
CA 25.4216 -3.91475 55.21
CA 25.371 -0.512397 35.441
CA 44.8362 5.75762 55.9526
CA -6.2663 -18.3671 55.9257
CA 14.44 -24.6336 67.6562
CA 28.8768 -23.4905 58.9417
CA 25.3757 -14.5858 61.3852
CA 11.9544 6.11599 32.1485
CA 23.2784 -12.3957 78.0208
CA 37.182 8.42049 63.3195
CA 20.5779 -8.61957 19.4555
CA 24.3453 17.6961 45.2126
CA 31.1997 -20.5639 62.5766
CA 22.8103 -13.1528 68.3397
