489

CA 42.9222 -4.8112 40.6502
CA 46.8543 -16.6059 55.9279
CA 11.3412 -7.4431 64.3161
CA 43.5142 -8.95558 62.4648
CA 9.35511 -3.0947 40.8373
CA 17.9806 -25.4994 76.2279
CA -6.02457 -17.325 65.4618
CA 15.4241 6.73656 62.0836
CA 10.5755 -22.0357 55.7339
CA 39.7176 -8.17725 37.3082
CA 33.8308 -6.82496 54.8183
CA 17.4235 7.46915 8.4877
CA 34.5801 -10.9709 82.3147
CA 44.8602 -9.71425 74.6633
CA 18.8585 -24.5254 53.7558
CA 45.4278 -18.6201 59.3435
CA 35.259 2.29734 43.1663
CA 24.2336 15.0126 55.7206
CA 41.4659 -18.6295 57.4007
CA 39.6381 1.81923 43.5754
CA 33.8622 -4.5819 76.8394
CA 37.1665 7.10346 55.9191
CA 39.5314 -22.788 49.349
CA 28.369 2.2191 81.4474
CA 44.5492 -25.1685 48.336
CA 47.8695 -5.86253 64.871
CA 29.2705 -23.397 61.8067
CA 33.8648 -18.6583 49.0144
CA 16.1513 1.9267 71.6741
CA 42.07 3.90531 73.9269
CA 37.6211 -27.0598 48.2376
CA 28.1533 -18.3594 56.9136
CA 20.2634 14.5893 43.8598
CA 26.8496 1.28528 66.2888
CA 42.6905 -0.25079 52.5016
CA -2.79314 -14.6355 61.3248
CA 27.6471 -20.5745 64.0679
CA 31.7194 -9.82887 43.8371
CA 45.8196 -7.54654 66.1437
CA 27.6097 -10.9741 62.896
CA 35.3495 -3.83072 46.729
CA 35.9702 -13.7568 60.9023
CA 24.8761 -34.3212 79.4146
CA -8.41126 -20.5678 58.3153
CA 26.7543 -14.8788 36.5131
CA 18.9292 7.05313 22.8107
CA 42.8988 -9.61741 68.8512
CA 37.7721 -4.68507 52.9889
CA 17.6745 13.2681 51.5099
CA 33.9341 -9.29592 41.9478
CA 34.2548 4.87633 49.4013
CA 24.2747 -15.9294 67.7889
CA 33.3779 -8.13507 45.2134
CA 21.7635 -23.0144 77.7925
CA 23.011 -25.5034 85.514
CA 34.8429 -33.1683 52.8935
CA 25.2743 -16.8804 84.3793
CA 15.9148 -26.2474 71.2634
CA 30.6485 -6.08156 65.2568
CA 19.0173 3.8938 74.6858
CA -1.96238 -15.4982 58.1194
CA 33.2142 -8.65164 72.371
CA 6.89932 -12.3119 58.4996
CA 28.4244 -0.0539095 50.0983
CA 24.2304 5.09394 72.1991
CA 35.1358 -13.6847 58.8135
CA 26.4017 -23.5727 74.4304
CA 28.9268 -13.1073 74.5378
CA 46.8264 -2.81176 50.571
CA 37.0743 -3.20402 67.5222
CA 25.6852 -7.37351 66.2423
CA 34.8569 -0.380204 40.9839
CA 41.1698 11.3318 71.3695
CA 25.1965 6.78019 84.2797
CA 34.4886 -26.8787 51.7789
CA 12.793 -18.1555 58.5655
CA 45.0402 -6.16787 37.5933
CA 8.21664 -4.14917 62.5641
CA 43.0629 -8.65479 37.2993
CA 31.2783 -3.28384 60.0511
CA 14.5686 -7.32826 33.6309
CA 28.6743 -8.18002 64.9726
CA 43.9949 -20.8108 58.1945
CA 33.0923 6.55096 52.4894
CA 28.268 -9.52894 56.8524
CA 28.118 -4.09388 52.1794
CA 42.0452 20.2581 59.0959
CA 30.5124 -25.5147 46.1451
CA 25.2181 -7.34719 74.932
CA 44.4106 -32.6677 49.6167
CA 30.5526 7.81054 54.321
CA 20.0973 -28.8451 85.4709
CA 22.4439 -33.1099 84.4298
CA 16.8489 -14.9565 53.0561
CA 33.674 -0.607794 88.5518
CA 16.7814 6.00597 31.2586
CA 20.0402 -16.879 84.3008
CA 22.9434 -0.673488 81.4534
CA 27.1724 -10.2406 79.3153
CA 32.6436 -4.04601 50.6206
CA 31.9197 7.06622 60.2307
CA 18.8311 -24.1025 80.4724
CA 18.422 -6.99482 50.7455
CA 6.42669 1.48189 50.8599
CA 13.6016 3.84769 63.4388
CA 46.6776 4.86316 54.9366
CA 43.2754 0.199219 75.5218
CA 38.4381 -24.766 36.4844
CA 10.6662 -24.6203 72.9647
CA 26.4659 6.42261 72.3784
CA 37.5948 -9.78941 61.7654
CA 39.2144 -27.9566 44.8941
CA 38.1578 18.2201 54.0967
CA 47.8911 -19.0332 54.1144
CA 28.9131 -19.9962 83.9167
CA 35.6584 -0.239744 61.9103
CA 41.608 10.7666 74.2235
CA 30.4236 -3.43182 48.7076
CA 43.3966 -3.81657 52.4374
CA 42.3907 13.3667 60.8821
CA 25.4977 -11.1458 25.7846
CA 41.0438 -7.76505 43.0563
CA 11.5293 -17.8689 65.2941
CA 23.6928 -21.2531 58.8522
CA 10.1985 -15.0706 57.6013
CA 27.294 -19.3914 84.4845
CA 35.3423 -29.8285 50.9871
CA 20.3314 -18.5526 42.2525
CA 22.2189 -38.554 85.4165
CA 41.3188 -7.12304 58.7431
CA 24.0542 -21.7355 49.9272
CA 37.4171 -8.26131 56.7667
CA 33.7524 -35.5597 48.6827
CA 9.15812 -5.94005 63.0725
CA 49.7182 -14.6311 61.4795
CA -2.78465 -17.8161 61.2636
CA 25.3117 0.444042 84.5305
CA 12.4464 -13.634 48.7537
CA 24.5973 -2.99272 37.5792
CA 5.68437 -5.67349 38.9995
CA 29.6817 1.50998 66.3598
CA 23.1625 -7.14001 20.4878
CA 31.5254 -32.2435 52.8196
CA 46.6551 -11.187 69.646
CA 32.8726 -35.3363 53.4852
CA 32.722 -18.1758 68.2498
CA 25.3758 5.70327 75.6679
CA 44.9591 -30.0515 47.7782
CA 17.2312 6.3715 33.7727
CA 12.7302 -11.9264 60.4106
CA 23.7861 -7.76878 63.7617
CA 33.4082 7.69213 61.9102
CA 29.5092 7.61631 44.8618
CA 3.79094 2.00679 51.6833
CA 26.6324 8.50305 81.6989
CA 39.1312 13.703 72.8849
CA 41.5585 11.2485 68.5772
CA 21.474 -17.9564 45.2933
CA 5.80293 2.90385 60.6681
CA 10.6796 -26.7592 65.4403
CA 23.3288 -17.3215 43.3335
CA 32.7032 13.6087 62.5987
CA 43.3888 -9.87837 59.6221
CA 31.9807 -31.9268 54.605
CA 19.52 12.2927 13.9811
CA 49.4275 17.7951 58.6179
CA 13.1462 -9.73108 42.9073
CA 15.7463 -23.6378 46.6844
CA 33.9322 -11.9624 52.8305
CA 12.548 -1.62245 50.0984
CA -2.30697 3.73787 57.23
CA 4.47346 -7.97542 62.4132
CA 37.1392 -7.72056 59.0781
CA 24.8782 -23.8559 84.0843
CA 28.0363 -18.3482 81.0977
CA 6.99896 3.0964 58.9555
CA 46.1202 12.2312 54.3877
CA 12.0108 -19.8748 42.9313
CA 37.2466 -9.50115 52.6116
CA 10.3441 -9.97392 45.616
CA 31.8058 0.688842 62.6761
CA 12.1473 -7.41495 54.3592
CA 25.6528 -12.3561 53.027
CA 38.9352 -17.8182 66.1686
CA 36.5646 -32.0983 46.3172
CA 16.2138 -8.56946 38.7494
CA 15.736 13.0049 49.9722
CA 39.9476 -8.89918 73.905
CA 21.7479 -16.4512 69.0193
CA 14.2074 -33.5075 74.7143
CA 31.1165 0.779219 85.878
CA 20.6137 -5.18057 26.6357
CA 32.1176 3.47064 59.4796
CA 19.2429 -23.9206 67.544
CA 27.2801 4.10797 40.2322
CA 20.0111 10.4301 10.6498
CA 20.5531 5.51809 27.7012
CA 42.487 -32.314 45.449
CA 24.4358 -38.3486 77.2063
CA 20.6287 -6.94936 23.4869
CA 12.4134 7.903 7.01536
CA 29.984 8.98525 49.8882
CA 16.779 -24.2481 71.1531
CA 44.9809 -0.567534 46.7575
CA 18.9006 2.84 72.1163
CA 30.5595 -11.7599 56.5882
CA 48.4436 12.4391 58.1267
CA 19.1122 -8.10716 52.7959
CA 31.6691 -8.90661 73.5453
CA 42.5484 -4.16804 74.9149
CA 42.2141 -4.85332 70.168
CA -1.01219 -15.497 55.0748
CA 27.8611 2.3725 83.2544
CA 16.6483 3.62507 70.1045
CA 36.8709 -33.1816 54.7985
CA 25.4149 -6.92288 28.7435
CA 42.3329 -26.3855 45.0209
CA 39.1491 2.5483 58.7121
CA 13.923 -24.0634 65.8478
CA 21.529 9.85825 55.0608
CA 38.1571 6.0378 57.2032
CA 41.2087 -30.1771 43.0191
CA 42.1944 -7.44532 34.8059
CA 17.176 2.74677 73.6698
CA 27.923 2.39824 74.0703
CA 33.1203 2.99678 85.5378
CA 10.1878 -10.0164 48.9899
CA 32.2557 3.7257 53.1769
CA 40.1388 -3.65541 43.4794
CA 10.9277 -11.5256 52.8073
CA 19.4067 8.77681 16.3166
CA 13.4392 -7.17316 48.3336
CA 29.3287 6.31553 51.6579
CA 34.237 -1.43712 59.1459
CA 28.2115 3.72853 68.0117
CA 23.7311 6.465 73.8066
CA 14.341 -21.9966 43.1308
CA 38.9204 10.1269 69.3183
CA 24.2864 9.35042 83.0269
CA 15.2896 -24.2603 74.0073
CA 18.5626 -34.1591 71.0618
CA 18.8615 -2.64145 32.0698
CA 28.7209 -14.1687 32.2278
CA 33.3037 9.34368 46.7674
CA 12.8237 -29.7369 76.922
CA 33.6697 -12.197 58.7132
CA 33.6402 -23.8531 50.6109
CA 25.8221 -12.6723 37.1108
CA 12.2961 -2.98696 41.3709
CA 38.8231 -19.1104 56.4732
CA 21.7713 -8.64445 27.609
CA 37.022 -21.9458 54.1561
CA 48.2821 -24.3961 59.0143
CA 12.3052 -6.81739 65.7031
CA -4.66376 -12.248 58.6134
CA 24.4171 13.2261 82.7766
CA 28.2254 -22.8133 56.874
CA 39.2465 15.7553 63.6642
CA 13.0206 -13.2713 51.142
CA 34.3908 -6.16054 60.8178
CA 44.0635 -27.3622 45.0805
CA 6.75192 -4.60896 60.6798
CA 32.3115 -4.00494 56.5971
CA 15.8649 -18.9651 53.6461
CA 36.9198 -1.39943 76.8129
CA 22.3142 -19.4487 40.5998
CA 21.8497 -11.2054 73.2551
CA 21.2369 6.09341 23.7094
CA 21.751 -22.2485 40.8386
CA 39.3037 0.133893 41.5866
CA 16.4202 -5.2051 33.6024
CA 18.6115 12.5507 47.3218
CA 10.3278 4.82563 5.58406
CA 42.4237 -7.54685 61.3431
CA 39.69 -9.82229 70.953
CA 25.6639 12.0614 80.7166
CA 33.5321 -29.5201 51.0804
CA 20.8006 9.16813 11.865
CA 30.3263 12.3687 84.9537
CA 42.5778 -6.90212 42.2301
CA 47.4556 -13.3069 68.3245
CA 34.8461 0.609007 77.4668
CA 34.9736 -7.19202 67.5836
CA 15.5902 3.67381 67.1418
CA 32.8568 -8.23054 56.4034
CA 15.8438 0.859295 77.9616
CA 24.3455 -2.00216 77.5503
CA 21.9559 -16.679 58.5678
CA 29.8474 -11.8799 51.703
CA 35.4647 -10.144 39.2213
CA 28.6164 -6.4882 80.4164
CA 40.2192 7.99772 61.4004
CA 5.18281 -10.2445 60.3706
CA 21.3387 -18.8527 77.8268
CA 47.7552 -9.05004 59.8204
CA 22.7803 -1.20404 37.6098
CA 26.0949 -1.74353 80.2008
CA 31.4597 13.3282 59.5985
CA 48.1531 -21.9688 58.5461
CA 25.2369 -5.35015 20.6208
CA 11.4626 -5.15833 28.3428
CA 0.254603 -0.207322 57.5191
CA 41.4247 -14.735 60.9327
CA 20.8023 -35.9623 85.9117
CA 18.3463 -18.7721 41.6924
CA 25.7455 -9.95217 30.1355
CA 35.5279 12.602 66.6573
CA 23.6028 -26.7244 80.8508
CA 43.2224 -21.2872 38.4303
CA 22.0432 -5.57119 50.6571
CA 39.5265 -1.86336 75.7833
CA 29.2349 -32.9537 49.6417
CA 31.3691 20.5647 83.4727
CA 19.3093 13.4673 41.5523
CA 6.99935 -25.0457 64.9873
CA 25.3051 8.49958 44.2814
CA 16.5115 -28.0636 74.5717
CA 45.4709 -17.368 53.1141
CA 26.5379 14.0827 38.9737
CA 33.0638 -13.2917 71.8393
CA 22.7813 -2.28642 33.56
CA 30.4466 -19.781 66.675
CA 24.8354 4.73496 84.5521
CA 42.2775 2.76872 62.1159
CA 31.222 -9.11416 62.4775
CA 30.8161 -12.909 60.3965
CA 22.2011 -0.855246 65.7101
CA 1.04438 -19.4431 60.3006
CA 20.7447 -0.789759 81.0269
CA 40.5519 0.671345 77.3932
CA 4.53411 0.655973 56.9554
CA 29.829 14.4238 81.4977
CA 40.7916 -11.9598 61.6228
CA 9.36582 -9.11293 42.745
CA 8.56603 -8.29726 29.8484
CA 9.74416 -6.27943 58.5105
CA 23.7818 9.0975 59.4848
CA 23.329 10.7802 62.4248
CA 33.9272 4.59874 67.2554
CA 18.3814 -10.6222 37.4361
CA 41.6594 17.9958 61.2703
CA 12.5143 -21.6163 55.1606
CA 34.1615 -9.13743 68.7502
CA 17.3374 -21.8892 57.1419
CA 8.19869 -17.6043 50.8043
CA 21.0201 -12.6518 55.0662
CA 40.9739 -3.24202 35.3369
CA 1.88971 -11.4762 58.4574
CA 39.2761 6.18395 59.9755
CA 25.6972 -28.2134 80.3533
CA 42.6482 -4.29204 38.0883
CA 17.1794 -3.82271 32.3003
CA 44.4075 -24.5219 50.0665
CA 23.9383 5.89983 42.5696
CA 24.9333 -21.1066 85.3485
CA 16.0381 -19.7294 56.4431
CA 40.6506 -23.7104 36.6641
CA 9.52333 -13.5993 59.9876
CA 16.3713 -21.4889 71.0497
CA 8.46778 1.26494 58.8268
CA 18.4086 -7.7693 43.7665
CA 20.7612 0.710148 58.5549
CA 38.8118 17.8607 57.1939
CA 1.69837 -0.0752685 47.3473
CA 43.2305 18.8713 58.2956
CA 29.4735 -16.0365 86.0099
CA 44.3135 -22.6737 43.9001
CA 9.39829 -7.08775 43.098
CA 33.7739 -0.13993 46.9129
CA 34.0836 -14.7156 69.6789
CA 10.7522 -15.4745 61.489
CA 16.8416 -13.046 41.1081
CA 29.5511 -11.2246 74.9149
CA 18.4789 -18.0379 39.522
CA 44.5656 -16.8561 59.7512
CA 31.2216 14.2642 65.0633
CA 17.7745 -6.89379 45.8233
CA 27.0323 4.16804 75.7681
CA 31.026 4.26966 55.6433
CA 41.0969 -7.11087 38.4288
CA 21.3255 -1.44924 62.2528
CA 10.6595 -0.610229 48.825
CA 28.7946 17.0508 85.8288
CA 29.9929 -0.142439 84.7481
CA 23.1351 -23.5235 79.037
CA 20.7104 -5.87069 45.4498
CA 45.231 15.1308 57.0808
CA 36.1585 -29.7803 54.3003
CA 32.665 -3.11968 74.9979
CA 18.1677 -6.06867 63.9422
CA 32.0135 -11.9694 51.3355
CA 22.7563 -14.3401 56.1332
CA 30.9175 -24.7045 58.9324
CA 19.7078 3.76147 22.3153
CA 50.1737 -10.2347 66.5187
CA 27.4157 -12.7723 56.1766
CA 26.3212 -8.68519 23.9079
CA 26.7067 -14.5976 74.3984
CA 18.1759 9.79514 12.7141
CA 34.7424 6.69052 51.7587
CA 17.6638 7.53447 64.9575
CA 30.9106 10.6177 59.342
CA 24.3806 -22.2468 55.8245
CA 41.4236 0.652927 60.417
CA 22.5066 -19.5574 47.6116
CA 38.21 -13.8934 63.4216
CA 27.9525 9.81112 85.3366
CA 17.9573 1.35401 66.7668
CA 21.6006 -19.2085 79.7894
CA 26.2274 6.42274 68.5048
CA 26.2183 -13.3955 44.6537
CA 17.8094 6.87546 18.8346
CA 26.1643 2.83449 55.2038
CA 36.4996 0.956225 76.0178
CA 0.421816 -19.0747 56.2316
CA 32.9408 -5.59008 42.8688
CA 27.1931 -0.426526 63.7391
CA 41.1664 -26.8407 53.7794
CA 45.7162 -10.6161 66.737
CA 21.9588 -4.19764 37.8642
CA 40.0491 7.94691 73.5504
CA 10.0855 -14.5159 48.2718
CA 41.311 -3.27266 46.0592
CA -1.73475 -18.1363 57.5112
CA 14.2706 9.05358 3.51273
CA 44.1378 -32.8606 44.5932
CA 41.2705 -2.12601 40.5035
CA 36.5762 -3.61946 51.808
CA 22.8493 11.4093 11.6745
CA 28.1425 5.07811 54.7635
CA 46.6037 -13.4972 66.5655
CA 36.4388 -2.77512 37.2806
CA 23.7658 -20.2292 83.0975
CA 31.6433 -12.274 64.1794
CA 19.2942 4.00474 56.2993
CA 25.5613 -18.1722 47.1679
CA 13.272 -6.16405 55.2372
CA 3.53358 -3.16091 38.3326
CA 27.41 -4.40689 19.8256
CA 25.6484 -3.26773 49.4829
CA 13.002 -4.79063 46.0792
CA 32.8611 -9.8367 80.2876
CA 15.9703 6.50489 67.1536
CA 34.1878 -1.44108 73.8779
CA 40.3588 2.92028 57.3957
CA 38.7025 -32.6786 43.381
CA 11.8879 -1.90718 65.7225
CA 23.4427 10.5643 39.4594
CA 12.0788 -4.51155 66.3996
CA 47.2242 -0.428802 45.8077
CA 20.6854 -22.0074 68.3859
CA 21.4113 -2.4117 59.2158
CA 22.3815 -6.54036 30.8882
CA 14.7725 -7.32204 28.408
CA 33.5034 -31.9531 51.6406
CA 18.2622 -4.38093 46.2371
CA 47.4529 -14.4148 60.6543
CA 18.4563 8.4671 38.8401
CA 35.9862 -23.7177 53.7185
CA 34.2551 -12.1897 55.2805
CA 35.9154 -26.8531 49.0107
CA 21.7929 -5.4049 61.6483
CA 21.4263 15.1862 52.24
CA 32.8427 -5.57123 48.8031
CA 30.6449 -9.30498 76.4218
CA 20.3603 -8.19116 31.6867
CA 20.8947 2.35064 78.3625
CA 37.7178 -1.47402 74.1548
CA 19.351 -19.4277 78.76
CA 25.9 5.9753 59.2072
CA 22.2032 5.45643 59.2693
CA 23.467 -40.3384 74.5159
CA 40.52 5.54993 51.9526
CA 29.4984 9.26106 81.5312
CA 40.3555 -7.29829 44.7083
CA 25.4216 -3.91475 55.21
CA 25.371 -0.512397 35.441
CA 44.8362 5.75762 55.9526
CA -6.2663 -18.3671 55.9257
CA 41.869 -25.8344 50.2677
CA 50.4353 13.4106 58.9485
CA 23.2641 -6.41631 54.0041
CA 31.1315 -29.7529 50.9864
CA 25.1447 -20.3425 81.7602
CA 31.0088 -22.5067 54.9919
CA 20.5779 -8.61957 19.4555
CA 10.5629 -10.6594 60.8289
CA 27.1471 -1.07253 49.3093
CA 22.8103 -13.1528 68.3397
