489

CA 24.5953 -2.58307 30.8906
CA 33.5377 2.20051 76.0423
CA 42.8169 -5.83283 32.988
CA 44.0139 -8.33881 69.2469
CA 5.91434 9.39196 58.086
CA 26.2279 -8.60702 68.6396
CA 21.5647 -11.1222 72.8022
CA 39.0915 -11.6084 77.2478
CA 34.6079 -11.6483 51.5029
CA 33.7685 -0.523407 37.6301
CA 23.7739 6.93282 43.9326
CA 37.0408 16.3565 59.3227
CA 26.2264 -28.1845 59.0955
CA 30.1629 -6.82242 38.519
CA 21.011 -13.5502 43.2308
CA 38.4731 4.48556 56.0854
CA 21.0516 8.77957 12.2617
CA 49.2268 -22.0405 43.7419
CA 45.099 -4.55127 63.6371
CA 43.3932 -5.31909 65.2168
CA 33.8622 -4.5819 76.8394
CA 7.27652 0.0331746 56.6195
CA 25.3894 9.09885 51.8614
CA 11.3577 7.03477 10.1527
CA 29.3547 -8.01548 42.7512
CA 38.0638 -36.3341 45.6375
CA 33.3625 -22.0057 54.5376
CA 22.5455 -15.1379 57.8296
CA 38.763 -24.2636 45.3728
CA 46.8968 -18.4024 62.92
CA 22.628 -2.34838 72.4012
CA 25.175 -4.73855 30.5658
CA 34.6495 -15.7668 83.3748
CA 33.3775 -15.5038 85.8308
CA 23.4717 -17.3012 84.6781
CA 4.34017 -7.2348 54.8366
CA 35.9061 -8.42325 30.6881
CA 35.1942 7.93961 77.2879
CA 14.3934 3.49516 11.4371
CA 32.8078 -22.9524 49.9146
CA 42.6746 -3.68635 59.9312
CA 21.5682 -28.1058 40.3316
CA 22.8421 11.4552 45.444
CA 27.3614 10.629 84.9614
CA 48.5157 -3.17423 66.0453
CA 26.4301 5.56169 65.9291
CA 29.97 4.61222 68.2868
CA 39.5029 -9.2603 70.6239
CA 26.3901 -10.4582 50.7162
CA 15.2268 -8.18327 50.2919
CA 17.1411 -8.4371 44.0872
CA 21.6548 -9.23003 39.3219
CA 29.3106 -30.5753 48.3561
CA 40.6223 -10.4534 73.3457
CA 22.2024 -2.94816 81.6234
CA 49.4243 -9.81723 72.8144
CA 19.0384 -6.15006 52.9565
CA 25.1066 -13.9105 74.3352
CA 38.8134 -5.26687 43.4223
CA 37.9888 -0.926526 44.6782
CA 13.6559 -19.3781 40.661
CA 35.7307 5.08645 54.5113
CA 26.5864 -16.3927 40.2637
CA 29.2224 -36.3245 47.2103
CA 26.5186 -29.0297 80.7723
CA 26.0382 7.29092 53.2915
CA 36.4631 -22.225 60.2607
CA 26.1489 -23.284 62.451
CA 18.3839 -15.4967 31.5827
CA 41.4463 -6.87159 59.9508
CA 39.1611 1.00537 79.5255
CA 5.12732 -19.7993 60.3388
CA 35.287 -30.8057 48.6137
CA 8.93007 -26.5105 66.8605
CA 25.0614 -8.07593 24.6781
CA 22.8439 -4.78359 60.9519
CA 11.9437 -28.9027 62.5723
CA 37.5389 -24.7336 42.4203
CA 53.6648 -24.0452 45.8272
CA 32.6411 -23.234 44.8162
CA 15.4422 -18.2172 46.9231
CA 32.3487 13.8597 57.7423
CA 27.4682 -16.0895 43.6359
CA 22.9536 -4.88914 40.678
CA 21.5055 -12.3304 76.2183
CA 47.177 -7.5029 63.6368
CA 45.4506 9.9603 58.4505
CA 26.9469 -37.6179 52.743
CA 35.6696 -11.3239 35.5063
CA 19.4039 10.6542 63.7544
CA 34.1474 -8.93119 63.688
CA 24.4996 -17.7352 55.6485
CA 43.8274 -33.8187 52.2194
CA 26.4532 -5.9992 29.9374
CA 33.4282 6.00839 47.123
CA 16.7962 -20.3584 35.6629
CA 22.5513 -5.69047 64.0893
CA 6.85952 -6.5643 60.8466
CA 32.3412 -7.14274 64.1025
CA 45.0454 -35.3923 53.3442
CA 24.797 6.52379 65.4521
CA 31.7171 -29.6575 50.7965
CA 25.6889 6.34057 48.3317
CA 33.9492 -4.52807 46.9994
CA 26.8928 -9.79921 31.0191
CA 45.1223 -33.1521 48.501
CA 18.3627 -20.5095 63.6219
CA 49.369 -10.3414 78.3441
CA 41.1026 8.03598 58.3968
CA 29.4696 -0.444708 68.6832
CA 40.8356 -4.25795 33.5035
CA 24.1099 -2.04224 27.8311
CA 47.7334 -23.3655 40.6993
CA 43.7111 10.7811 72.2883
CA 23.3229 4.87404 54.2828
CA 43.1742 -16.7884 69.452
CA 39.3302 11.2937 71.576
CA 15.4293 -26.3824 84.1407
CA 30.3392 0.48812 79.1755
CA 46.29 9.9505 63.1401
CA 35.0962 -21.4834 81.2538
CA 34.1759 -25.9305 51.6752
CA 27.6261 11.1798 47.816
CA 40.8499 -7.03117 48.5116
CA 42.1762 -29.7088 63.379
CA 23.4031 -1.16782 37.4149
CA 37.4526 -14.0937 76.3839
CA 25.726 -18.6122 84.669
CA 38.6085 -17.272 58.0691
CA 28.452 -35.4312 49.157
CA 22.1037 -28.6984 37.167
CA 41.8273 -21.9063 55.5646
CA 26.9275 1.49531 45.5633
CA 44.3618 -18.319 42.7279
CA 36.8165 -7.71905 33.0908
CA 5.32639 -21.7463 58.465
CA 26.3699 -23.1566 78.2379
CA 25.9316 11.2104 45.55
CA 21.9928 -16.3347 34.2968
CA 32.3383 -7.47945 60.7152
CA 36.157 -39.6018 56.0641
CA 32.7853 8.11952 48.0402
CA 9.2342 -2.13939 55.6863
CA 37.7336 13.1526 60.9653
CA 19.3775 -15.4666 35.9274
CA 26.3253 -1.72988 62.9528
CA 24.4041 0.987393 29.6888
CA 47.8616 9.58945 72.45
CA 27.4163 -20.0956 67.9738
CA 41.9488 -24.2669 40.9367
CA 45.1907 -4.21098 66.7192
CA 11.9502 -20.1994 53.809
CA 16.9612 -7.04755 53.3548
CA 44.4747 -6.3034 59.6594
CA 34.7679 -2.11778 77.393
CA 44.2614 -13.5892 74.3612
CA 28.3594 -5.31605 64.9943
CA 23.4961 -19.4471 43.0842
CA 28.5747 -18.4327 55.2535
CA 20.4062 12.7124 69.0672
CA 7.68888 -9.26019 56.1196
CA 3.7974 -10.281 54.8317
CA 44.992 -21.6957 47.3195
CA 37.9782 -45.1062 56.6019
CA 39.3932 -17.9144 63.5529
CA 44.1082 -10.845 61.4661
CA 19.0477 -0.0735047 37.9986
CA 27.9387 2.76272 52.0264
CA 19.8313 -4.40283 43.7931
CA 40.8002 -3.79247 47.2931
CA 31.5508 -16.9919 91.5115
CA 28.1552 -13.9074 62.8006
CA 53.1637 -11.2591 71.8339
CA 28.9991 -6.81476 55.0104
CA 40.1495 -3.84055 39.5847
CA 29.6412 -13.2107 88.5925
CA 45.7813 -21.9702 39.8739
CA 24.6734 9.03893 50.1203
CA 36.9551 -7.89279 40.4527
CA 31.8569 -14.4446 42.7388
CA 16.836 -11.6919 68.3973
CA 18.891 -2.60923 38.6455
CA 26.1897 -13.1323 72.1594
CA 27.8673 -12.4667 77.1925
CA 38.5482 -26.5627 62.62
CA 39.7374 -7.67378 80.1875
CA 25.508 -14.7634 36.969
CA 41.4675 -6.88724 62.8017
CA 25.7966 -13.2422 68.2757
CA 26.7066 -16.2007 46.1197
CA 31.1165 0.779219 85.878
CA 26.3283 2.08564 42.3234
CA 32.0964 1.34689 88.2054
CA 18.6636 -2.47098 50.9067
CA 19.108 -26.3573 80.3206
CA 44.6631 -16.4363 64.6872
CA 35.4345 4.65447 60.1275
CA 25.1411 8.3953 60.4908
CA 9.50874 -1.45949 60.4705
CA 44.2629 -19.1429 61.7618
CA 12.4134 7.903 7.01536
CA 6.71538 -18.9575 62.5182
CA 32.4215 -16.3611 81.6868
CA 17.4074 -1.61642 60.3734
CA 21.5479 5.68869 20.9023
CA 37.1514 -22.0082 55.7879
CA 38.1492 -11.1576 41.2342
CA 41.9415 -16.6425 74.611
CA 30.9211 -11.734 57.6608
CA 45.1388 -19.4656 64.788
CA 18.1223 -3.17008 73.0671
CA 40.3992 -14.8542 67.8834
CA 47.4326 -22.3616 57.2881
CA 39.3463 -10.8787 39.8274
CA 36.5799 -35.7423 53.8167
CA 28.0653 -8.56289 79.649
CA 28.2158 -1.6897 86.5786
CA 20.9456 -25.4108 78.9776
CA 41.2925 -30.5833 56.1043
CA 33.2384 -16.3363 48.1408
CA 33.2995 2.49507 44.1492
CA 18.3224 -9.17529 67.0389
CA 20.4951 -25.0329 77.0032
CA 34.4127 -22.5656 64.7602
CA 39.9307 -33.7539 49.0978
CA 48.7186 -13.093 62.9015
CA 45.4784 -22.1222 54.754
CA 23.4194 5.77975 51.9847
CA 29.3059 -9.98425 60.0382
CA 14.4929 -4.85631 66.7942
CA 19.4067 8.77681 16.3166
CA 35.5573 1.91346 62.3069
CA 36.8827 6.16217 65.015
CA 7.19834 5.39627 60.9502
CA 15.6797 -20.8165 39.4124
CA 42.0064 0.134615 34.9521
CA 13.1586 -25.29 67.2415
CA 23.3817 -15.6468 63.5706
CA 23.2447 -10.1861 23.8868
CA 19.589 -7.415 73.0636
CA 43.0901 -24.5439 45.0192
CA 35.4574 6.93704 47.8969
CA 17.4152 -13.2795 70.382
CA 36.2037 -26.7252 68.405
CA 37.3799 -5.69303 41.307
CA 47.2146 -13.0395 59.4702
CA 31.7349 -1.88712 86.3077
CA 27.711 6.38139 87.6186
CA 25.0039 0.341781 27.8522
CA 17.2285 3.65227 7.27176
CA 36.1089 -6.42317 52.8097
CA 7.06184 -18.5357 60.182
CA 22.0983 -3.91421 35.6589
CA 55.9634 -9.86693 70.8556
CA 19.0876 -1.83517 70.6424
CA 32.3672 -7.47096 30.0881
CA 10.6016 -16.3205 61.6325
CA 31.0603 -25.0764 60.6201
CA 30.0082 -15.4424 85.3172
CA 39.8057 -26.6102 40.1265
CA 45.9414 -7.62554 60.0115
CA 6.75192 -4.60896 60.6798
CA 55.6154 -27.2232 47.0389
CA 13.0394 -10.4886 48.5308
CA 35.9205 -15.8085 87.3755
CA 30.6734 8.11836 89.5862
CA 27.6575 -12.0995 28.8771
CA 41.4842 -3.0615 61.2518
CA 22.2329 -18.1481 61.8312
CA 50.5761 -8.80751 61.136
CA 41.4516 7.61148 65.8511
CA 31.0722 -17.6207 85.7874
CA 4.30243 5.54299 60.8826
CA 32.2812 -24.2672 53.749
CA 40.6999 -0.639917 64.5201
CA 24.6807 10.3278 68.4374
CA 38.9892 -41.5374 55.5531
CA 54.308 -25.6253 43.3328
CA 41.1831 10.6944 73.5793
CA 42.6843 -13.7085 37.6645
CA 37.3828 -16.6321 56.5291
CA 19.9065 4.99169 5.56659
CA 38.6012 -2.15169 43.4062
CA 43.2045 -7.69773 39.8703
CA 40.4019 4.34705 72.3849
CA 36.3625 7.78379 62.5773
CA 42.6525 0.482431 67.6619
CA 30.169 -16.3395 83.1321
CA 40.451 -28.4618 67.184
CA 26.2068 -9.03911 33.7015
CA 45.9728 -12.6998 62.737
CA 29.7426 -5.83083 78.3205
CA 44.2448 -29.1385 49.2172
CA 10.3179 -5.54334 57.6997
CA 19.9344 -21.377 61.7664
CA 18.0185 -0.0935992 69.314
CA 41.5112 -1.81372 40.3508
CA 7.15228 -7.64114 56.9052
CA 31.608 0.12789 84.1007
CA 5.95922 2.125 62.5662
CA 32.8801 5.25099 79.4326
CA 45.9457 -4.30255 55.0919
CA 52.746 -7.00523 62.6997
CA 10.6986 -19.8027 55.6253
CA 41.1895 -27.8163 42.9859
CA 0.550847 -16.1478 50.111
CA 23.1253 -7.52022 28.4053
CA 37.0188 -24.517 56.252
CA 4.85521 1.23974 53.2142
CA 24.7023 -8.41403 53.4384
CA 38.4998 -6.45713 67.7207
CA 37.8994 6.19103 59.5827
CA 12.9652 -8.17681 36.4537
CA 31.8295 -11.2524 62.6789
CA 38.0305 -19.9058 60.4579
CA 25.3051 8.49958 44.2814
CA 23.5517 -27.2791 78.4093
CA 17.3024 2.23578 11.415
CA 42.5456 -10.2981 73.3354
CA 41.7332 -36.7228 52.4147
CA 10.5993 1.94263 58.3382
CA 38.284 -26.3675 41.9745
CA 26.1527 -13.9558 43.1986
CA 26.9022 -11.5901 34.5733
CA 38.7531 -14.8481 37.4372
CA 25.0832 -8.81644 49.6389
CA 40.0773 -33.2932 55.0209
CA 51.1808 -5.17727 62.2075
CA 29.4743 3.56427 50.2302
CA 47.9869 -18.1544 65.9324
CA 43.3523 -1.07757 59.7784
CA 17.6821 -8.37012 64.4043
CA 38.2713 -42.6471 53.1502
CA 21.5969 16.4752 46.7863
CA 13.9968 -0.193756 61.9704
CA 22.0156 7.13565 65.9829
CA 29.0537 -25.1625 43.0098
CA 33.9545 -27.8959 61.1324
CA 36.3798 0.984261 60.3132
CA 11.6382 -20.7661 64.8359
CA 36.277 -7.82864 65.0158
CA 29.7229 2.49275 85.1062
CA 27.7038 3.86103 54.8122
CA 1.79455 -18.7867 56.2612
CA 19.6988 -4.38427 76.684
CA 36.9365 5.01086 57.0491
CA 16.7478 -14.6241 69.3473
CA 36.371 14.3996 55.433
CA 26.1602 6.70774 63.4535
CA 21.5855 -16.473 45.6492
CA 33.2956 -4.86284 51.8521
CA 6.37528 2.17708 58.518
CA 37.881 -4.00426 40.1512
CA 11.8154 -16.2125 37.5645
CA 16.7199 -16.8454 36.5319
CA 16.1497 -22.6657 60.3932
CA 38.0385 -10.8537 51.0131
CA 25.4875 17.8885 45.3416
CA 16.2943 -6.03516 55.1558
CA 40.8672 -5.40628 32.0591
CA 36.163 -5.05121 31.3993
CA 21.8078 -11.4747 26.7489
CA 29.509 -15.3523 39.3722
CA 33.7074 -20.6479 87.7802
CA 47.3534 -9.85957 70.7759
CA 21.5214 -4.83577 78.4268
CA 33.4131 -5.6944 36.7011
CA 23.5588 -22.48 73.6585
CA 26.6066 -10.6411 52.6389
CA 17.6832 -16.4462 34.266
CA 35.0533 -27.2349 37.2885
CA 27.3968 -13.136 89.6515
CA 24.1308 3.36856 70.5467
CA 22.8457 -9.82579 53.8875
CA 31.3297 4.12676 27.8042
CA 42.1432 12.213 58.6457
CA 48.6936 -17.6202 64.1779
CA 39.3697 9.50049 56.8042
CA 28.9189 1.57313 71.4578
CA 41.1835 -6.93854 52.3424
CA 11.3451 -13.4293 47.9829
CA 7.63404 -6.51514 58.2393
CA 33.1451 -21.0777 64.9075
CA 38.5825 -6.74297 52.8866
CA 25.0655 0.910525 61.4792
CA 38.4188 -3.00542 68.6383
CA 25.0409 -15.838 80.2656
CA 3.07795 -20.2995 62.4582
CA 23.2898 -7.1309 69.7037
CA 39.0436 9.5511 69.3565
CA 6.58608 -14.0963 47.0612
CA 43.1749 1.74428 42.8999
CA 12.6309 -7.57619 44.4873
CA 23.3152 3.84526 23.9623
CA 21.3053 0.369616 34.7259
CA 30.8843 -15.2693 50.0149
CA 24.7612 3.61514 67.1134
CA 13.6817 -14.9594 61.2137
CA 17.2027 -16.853 44.4036
CA 18.9144 6.2595 63.5229
CA 22.487 6.92545 53.1029
CA 17.1425 -10.639 46.0569
CA 37.4074 -12.4339 63.4012
CA 39.87 -14.864 72.5757
CA 17.2507 0.202958 64.744
CA 24.7613 0.127766 51.8015
CA 29.2663 0.885132 46.6646
CA 46.3561 -22.646 52.8498
CA 11.2054 -16.6325 57.7456
CA 20.857 -6.48559 41.8118
CA 20.7973 -26.8585 73.6701
CA 17.8094 6.87546 18.8346
CA 26.7469 -22.3899 75.8362
CA 18.6525 -13.9186 65.7454
CA 35.4232 6.00239 49.5262
CA 42.3311 -10.2738 41.3751
CA 31.2486 -11.8151 86.5463
CA 20.5755 11.8346 46.7822
CA 8.02323 -18.7006 54.844
CA 36.4005 6.34362 45.5626
CA 14.9675 -15.3527 66.1694
CA 42.1757 -19.3048 70.7764
CA 19.4612 -8.62718 81.3138
CA 15.6384 -23.8883 79.8885
CA 41.891 -3.83562 64.0099
CA 40.9348 -2.36087 34.2067
CA 2.84514 -14.3869 53.9698
CA 33.7492 -31.4007 49.6459
CA 4.45318 -15.4521 64.788
CA 31.0403 -10.6308 59.3438
CA 9.95613 -5.88896 40.0166
CA 23.4015 -11.3619 62.958
CA 21.2122 -26.2145 45.0828
CA 2.5731 -15.5653 57.8115
CA 42.7048 -7.85532 60.8314
CA 21.1389 -4.85944 71.1187
CA 16.3792 -8.09466 63.0584
CA 22.2937 11.7157 67.9762
CA 27.41 -4.40689 19.8256
CA 31.0299 -13.2053 36.8301
CA 29.747 -4.03891 74.519
CA 22.6164 5.72256 8.76
CA 14.0891 10.3865 10.2665
CA 18.4374 -9.02102 18.6415
CA 21.5314 -0.9393 74.5571
CA 8.2495 10.3065 6.65393
CA 30.9754 0.273487 48.8412
CA 26.4288 -24.0763 67.7278
CA 11.866 -19.7909 38.7062
CA 8.06277 -15.1863 49.1045
CA 15.5988 -2.99218 55.1844
CA 46.0419 -25.3466 51.381
CA 19.8978 -10.7285 41.4691
CA 13.8064 -20.2123 63.0026
CA 23.9892 11.3323 53.4584
CA 40.8466 8.54088 71.7288
CA 29.7606 -27.0212 48.6728
CA 46.9536 -5.28422 61.7184
CA 30.174 -15.6883 88.3882
CA 42.5102 -4.15823 79.8342
CA 35.6754 -17.3834 61.9517
CA 43.4544 -1.54001 38.7605
CA 17.767 17.2314 43.6359
CA 33.3674 -3.53226 33.5551
CA 28.5242 -19.9019 53.349
CA 26.9056 4.9759 30.095
CA 17.2238 -24.1983 62.9089
CA 28.5507 -4.63313 68.9975
CA 24.4122 -9.99792 22.0532
CA 36.2895 3.38331 51.0454
CA 21.7867 -4.08625 19.7145
CA 16.5333 -2.6985 34.4249
CA 22.5369 -24.5928 42.9782
CA 44.9974 -17.0259 61.7253
CA 36.6214 -6.97359 67.5517
CA 12.8859 -6.07806 52.9813
CA 28.5128 -28.6338 58.9579
CA 23.8711 -18.6272 44.85
CA 34.6215 5.1978 71.9485
CA 27.1293 -21.7608 71.6844
CA 50.575 -25.2878 53.1203
CA 33.3439 -15.396 41.8336
CA 33.578 2.03286 46.0973
CA 31.1512 8.69566 72.3966
CA 44.243 -22.4422 43.6749
CA 20.5779 -8.61957 19.4555
CA 39.7026 -2.30364 36.4241
CA 44.2336 -1.5656 48.8842
CA 34.0766 4.98168 39.01
