489

CA -17.193 31.4255 42.2479
CA 5.78225 0.862306 80.5884
CA 1.42078 5.8171 46.5182
CA -2.46034 4.16083 48.4254
CA 20.9718 -1.74703 43.3161
CA 21.5271 1.94996 65.4895
CA 39.7633 14.6857 57.0866
CA -14.8615 -3.04059 37.0206
CA 16.7135 3.36238 17.67
CA -7.3002 29.3865 51.869
CA -3.05313 -31.5404 31.8096
CA 1.19901 23.3546 44.8024
CA 11.7895 4.48125 37.3358
CA -16.1978 -25.6836 38.0717
CA 17.2026 7.30517 61.1375
CA 26.6329 0.959142 63.2375
CA 11.6074 -2.07517 57.1572
CA -10.0492 -16.5285 35.9016
CA -1.17546 6.0028 58.2815
CA -0.0828968 22.0642 22.7361
CA -18.0247 26.4545 34.4023
CA 8.49234 -10.807 70.1705
CA 30.6184 -7.06653 65.363
CA 20.2189 -3.32465 67.3908
CA 11.0436 15.8463 10.5515
CA 11.8677 -1.04382 35.8369
CA 1.23658 25.9757 38.1811
CA 19.0064 0.469321 75.7299
CA 18.0859 -2.29407 36.051
CA 16.4085 -25.9446 68.1204
CA 13.8808 -18.3677 62.9056
CA 4.85304 22.3257 20.5387
CA 18.5582 -31.9723 72.8129
CA 0.93027 -26.0208 32.0688
CA -3.36837 3.90411 42.6238
CA 20.8144 -29.0366 68.1571
CA 19.6454 -16.0105 59.0096
CA 20.0799 1.16037 69.3609
CA 4.51211 5.60019 70.6208
CA 4.72471 11.0432 43.4882
CA -23.1329 -13.699 40.5662
CA 11.7281 -0.219671 70.0904
CA 4.04411 11.8927 36.5966
CA 18.4245 -3.86273 72.1688
CA 23.7514 4.22163 69.6331
CA 15.9173 6.94638 66.6182
CA 0.64486 5.48823 44.5911
CA 6.99681 -4.95157 55.3686
CA 25.3936 0.450573 67.3499
CA 16.021 1.12237 67.8498
CA 8.94151 -21.5007 59.5643
CA 23.2202 -6.31828 41.5779
CA 0.731318 11.9212 42.643
CA 7.61526 37.7527 54.076
CA -19.6625 -22.7419 31.8831
CA 12.007 -14.1978 66.8011
CA 19.9191 -17.812 62.1344
CA -2.18667 18.6649 37.849
CA -5.19302 -10.3926 35.6223
CA 26.793 -8.77179 71.549
CA 0.00585414 14.2905 54.6363
CA -30.2914 -13.5994 63.5182
CA 11.1366 11.0687 42.7031
CA 14.7035 16.0971 28.32
CA 6.5602 -15.4673 58.7766
CA -2.15126 29.3838 44.8378
CA 8.65289 8.54922 37.4859
CA 9.65606 21.8495 24.9699
CA 40.6259 -9.90438 61.2591
CA 17.2091 0.740059 27.9616
CA 17.7052 5.82033 65.4407
CA 2.85753 18.3222 16.2854
CA 19.7538 6.77979 53.7816
CA 1.60718 13.3763 15.14
CA -5.77762 29.1078 46.8506
CA 11.0588 6.32026 51.7106
CA -5.48078 34.4236 67.9512
CA 15.337 -2.38005 34.1586
CA 2.05974 15.1441 37.6927
CA -7.35202 35.3425 67.0389
CA 23.9912 -6.89545 63.9694
CA -0.577966 33.9167 41.155
CA 23.2059 -3.15623 64.7041
CA 41.0527 -15.3215 55.7368
CA 34.4398 -10.1281 64.7889
CA 7.22466 17.1915 30.796
CA 2.92301 39.5875 53.9495
CA -19.2502 30.612 40.615
CA 18.8312 5.06892 67.2134
CA -39.0035 9.76244 52.2241
CA 21.0793 -17.284 52.8997
CA 11.4821 0.716722 67.1238
CA -4.47475 8.78545 58.3996
CA 12.893 15.753 12.8399
CA 13.155 -1.06635 41.996
CA 18.9086 3.50404 57.7287
CA 1.98782 -12.8903 45.6896
CA 2.13864 4.00456 42.7345
CA -6.55291 28.5001 53.8296
CA -4.13337 27.9261 50.8508
CA 15.5202 -2.24136 37.3492
CA 15.3953 -1.70988 69.4299
CA -3.8504 0.443737 42.7497
CA 8.09599 -13.7512 76.1186
CA -17.24 29.2927 39.5957
CA 4.34338 1.83711 44.7116
CA 40.9868 17.1854 59.0923
CA 26.4845 -8.9392 76.6589
CA 2.75038 -14.9534 45.3484
CA 8.47706 -24.5913 34.7871
CA 19.2458 23.4824 41.8708
CA -6.28118 -0.985075 38.2134
CA -6.22253 -15.3958 36.8479
CA 11.1095 15.9235 35.2753
CA 11.0281 1.31038 73.9272
CA 7.28009 6.99202 41.2186
CA 13.4498 -13.6993 56.4745
CA -0.15958 1.17 50.8333
CA 20.6985 0.66318 73.6779
CA 46.0393 -7.67771 62.6638
CA 13.0858 18.9479 43.1929
CA 5.30098 -1.43795 37.5163
CA 6.79427 0.447942 22.712
CA 12.3538 -6.97769 64.9714
CA 7.5955 21.4911 47.3127
CA -21.2458 -7.88568 28.5406
CA 29.6982 -16.3875 55.7729
CA 45.0546 -9.88363 59.8757
CA 23.9421 -11.2656 58.2466
CA -1.08264 8.25627 42.6014
CA 0.511491 3.56131 55.9017
CA 4.21329 -16.1327 44.9445
CA -2.96043 10.9263 36.8586
CA 16.8628 1.50886 70.0583
CA 2.59694 4.03999 51.2039
CA 12.0729 16.955 30.5047
CA 18.6368 8.17591 57.1104
CA 2.01594 -0.674982 47.1779
CA 8.33883 17.4672 37.3683
CA 13.8483 0.901539 64.8354
CA 1.14929 12.0467 53.3422
CA 22.1139 -4.47936 68.163
CA -2.81178 11.646 52.7741
CA 8.67674 16.947 28.0806
CA 22.9812 -1.64855 65.759
CA 20.9819 -9.3508 61.2912
CA 3.46859 20.7535 24.89
CA 9.64026 12.6772 45.14
CA -19.5267 -15.05 42.5994
CA -13.9593 27.0404 33.6749
CA 15.0676 -12.1502 50.9748
CA -3.96035 4.29244 61.9747
CA 39.4089 -8.16167 60.6136
CA 25.7195 2.77902 39.4163
CA -13.8623 -27.0065 40.1964
CA 34.9938 -11.7314 48.7846
CA 17.951 -4.98591 69.2716
CA -5.10493 -17.2746 31.5615
CA 4.49793 7.10062 41.9448
CA 6.42247 14.9393 52.6219
CA 12.1145 11.2411 36.2653
CA 15.891 -18.6344 51.1914
CA -0.0963591 -12.3202 45.0929
CA -16.5397 -26.8475 29.1179
CA 3.50121 11.5836 22.3373
CA -1.77532 -12.4084 51.9028
CA 20.4441 -1.47887 63.6916
CA 12.1645 -4.70528 45.6291
CA -1.9903 19.3844 40.1279
CA 14.375 -6.63767 70.0115
CA -16.0411 -8.79234 27.3915
CA 14.1561 -15.3227 63.4667
CA -29.7475 -11.0276 71.0702
CA 4.99668 4.78253 42.3227
CA -1.51812 13.175 47.3379
CA -4.19589 16.4978 91.4057
CA 13.4691 4.64477 41.9619
CA -0.976043 -20.4149 38.378
CA -31.579 -3.16542 63.2831
CA 6.45478 21.4167 22.6206
CA 0.0829784 7.64381 39.5303
CA 18.7856 -0.360453 64.8412
CA 30.0108 -13.2926 54.8996
CA -19.7464 16.2046 48.8814
CA 12.5198 -4.06922 68.7996
CA 15.9019 20.9346 43.6995
CA 11.9091 6.62343 57.9546
CA 13.0779 15.7872 16.2137
CA 28.1695 2.69915 63.9132
CA 11.1602 -19.0886 59.6963
CA -2.16077 4.03274 39.3643
CA 14.613 5.36374 59.567
CA 35.765 17.9859 55.6899
CA 10.7381 -1.87926 67.573
CA 8.7711 14.8497 29.0662
CA 34.4348 -7.12553 68.9643
CA 22.2427 -3.57891 44.1645
CA -21.3598 -13.0975 38.7635
CA -6.39734 5.24598 55.7408
CA 11.446 5.17088 48.3267
CA -4.27806 -15.4725 31.8952
CA -0.130661 20.1294 41.3981
CA -0.351851 14.8577 44.1051
CA -23.4742 12.1214 50.9913
CA -5.35999 -16.1379 40.1763
CA 10.3677 13.539 41.7459
CA -2.86557 3.54307 45.1548
CA -17.2446 30.7984 38.5513
CA 19.8267 -30.2939 71.7402
CA 39.936 -11.4738 62.4335
CA -34.7223 8.05335 61.9284
CA 10.163 6.52239 43.3314
CA 20.0096 -5.51277 70.0639
CA 2.21128 -13.8818 50.6619
CA 11.0332 -8.00915 44.2039
CA -26.4509 -15.727 40.4128
CA -19.6139 29.1647 32.2418
CA 12.1916 12.5849 38.1934
CA -24.8958 -16.9809 34.3496
CA 22.5399 -11.8343 71.1649
CA 3.42038 1.10253 34.7422
CA -37.1278 12.3679 52.0424
CA 1.71186 30.5719 44.5395
CA 25.3451 -5.46552 64.1213
CA 43.7102 -4.55776 66.8845
CA 31.4493 4.0948 37.4948
CA 13.8519 8.20077 67.8025
CA 6.01551 -11.3584 66.5059
CA 16.2458 -15.6004 53.1687
CA -5.30392 -24.4502 74.1098
CA -11.9642 -15.2558 33.7486
CA -6.99621 6.14604 52.609
CA -22.0924 -9.60276 23.6209
CA 1.90016 11.5341 44.1909
CA 16.4466 -11.8086 59.8515
CA 22.0276 -29.0557 72.3868
CA 5.29987 -12.1192 77.8814
CA 9.02437 13.1099 27.4782
CA 3.24616 11.8997 38.9157
CA 6.65798 7.54437 70.5862
CA 37.144 -10.3684 64.2228
CA 16.9088 -16.9522 56.9903
CA 12.0574 14.6449 21.6438
CA 4.75729 38.8241 52.0807
CA 19.3998 -17.5849 56.8369
CA -19.2573 25.8814 40.0694
CA 10.3695 -9.67619 42.4158
CA 21.1505 -20.6721 55.6778
CA -31.213 13.5968 51.5434
CA 24.906 3.60636 73.126
CA -2.19611 -6.55747 46.8978
CA 10.1976 -12.4111 57.0875
CA -5.53844 -23.9587 78.1615
CA -3.449 2.16056 53.6939
CA 10.6946 -11.5592 75.0446
CA 25.2248 -8.49641 73.2779
CA -16.5634 28.8091 34.1906
CA 0.811361 20.1692 46.2353
CA 9.78856 8.71469 39.9434
CA 2.28937 14.6022 18.6555
CA 25.4944 2.2461 62.0506
CA 20.1652 2.52302 46.9455
CA -17.1968 33.498 38.8049
CA -5.21838 8.55409 55.6448
CA -15.8028 -22.1412 33.6417
CA -5.15912 6.08785 52.9053
CA 15.6325 0.85273 26.1131
CA -1.5816 35.0508 51.8464
CA -0.152141 -3.01674 45.314
CA 1.61972 4.64822 67.7123
CA 10.8495 -6.22444 55.9677
CA 1.88167 18.4605 18.8902
CA 7.47828 16.599 41.7132
CA -1.70814 11.5537 57.7392
CA 24.4527 -1.15772 63.5788
CA 39.5847 -12.4316 51.0547
CA -7.77924 32.9364 71.1893
CA 12.9459 -3.1191 38.7176
CA 28.2293 7.20317 38.222
CA -18.6291 -8.21844 25.3785
CA 16.078 2.88187 58.9475
CA 21.3056 -5.2466 39.8051
CA 11.1005 2.81579 34.3184
CA -0.552704 19.193 45.3774
CA 19.6719 -7.07686 37.5822
CA 8.69 6.29882 72.5871
CA 27.2633 -3.22395 69.6476
CA -33.0256 13.1019 52.599
CA 32.5809 -13.0538 66.8158
CA 13.4947 8.22421 57.8849
CA 3.03744 16.8839 18.2598
CA 5.37981 2.34547 52.3001
CA 12.102 -14.9235 73.0362
CA 17.8723 1.06242 77.1905
CA 3.69792 -18.3939 35.506
CA 13.939 -5.72361 55.3211
CA 18.5908 -26.6007 71.6104
CA 7.75073 5.57263 42.5517
CA 2.10095 -16.5207 56.3158
CA 11.1379 -1.98256 75.505
CA 4.40075 30.0511 39.7473
CA 18.836 -2.11248 67.8982
CA 13.0499 4.46301 57.9177
CA -0.724241 -15.3163 52.998
CA -0.614826 5.55341 41.7655
CA 30.1786 -5.49149 64.1546
CA 23.455 -9.95706 35.3616
CA 8.45824 6.89502 39.6496
CA -4.52788 18.5779 42.3214
CA -4.75475 -22.2562 73.5621
CA -5.65884 -14.7234 30.4942
CA -18.664 30.3384 37.1932
CA -5.90809 -5.64153 38.2336
CA 8.04063 -12.084 67.8115
CA -8.39396 10.657 55.6536
CA 10.6565 9.62834 50.8177
CA -1.84584 3.83729 57.9785
CA 4.71063 13.0708 48.4595
CA -7.04275 -12.8834 68.7981
CA 18.109 3.57671 73.4502
CA -5.80495 -15.6887 33.1345
CA 33.1096 -9.75377 47.848
CA -21.7082 -10.1123 41.5602
CA -11.0573 10.3388 80.2119
CA 17.286 8.57542 67.9134
CA 26.1599 7.78711 40.2949
CA -5.28126 15.3252 39.2931
CA 7.76943 33.4097 55.3279
CA -5.8433 11.3456 44.7217
CA 28.158 1.40538 67.98
CA 18.6673 0.0807606 38.0608
CA -24.7034 -9.47462 27.8481
CA 5.56236 -15.0679 54.2101
CA 17.0466 0.954493 36.8429
CA -19.631 25.7795 38.0797
CA -5.75099 -33.6292 32.5245
CA 22.1842 -3.40165 46.7238
CA 15.1353 -9.53101 52.1279
CA 7.65145 -6.01805 53.4547
CA -34.5468 15.0822 51.7325
CA -1.50491 1.66493 44.7994
CA 27.2252 5.77054 69.0022
CA -1.33598 3.68123 35.7948
CA 17.3866 4.72835 19.5516
CA 22.7412 -12.914 56.8471
CA 16.7703 -5.3095 40.624
CA 12.5149 21.5742 36.179
CA 12.5231 -0.380555 59.4724
CA 16.1569 19.03 16.5158
CA 19.8483 -21.0309 61.3015
CA 21.1076 -10.9843 57.7534
CA -4.45896 9.20385 40.5354
CA 27.7785 -10.5808 52.9707
CA 16.2605 -34.5634 74.8359
CA 17.1983 -14.0353 53.9015
CA 34.1579 -7.71965 36.9942
CA 4.02447 36.1811 55.4989
CA 21.5774 -11.0813 37.437
CA -0.805592 10.1118 51.2342
CA 0.0360729 31.8388 40.9043
CA -7.31872 -1.05846 42.7622
CA -8.94655 31.4611 70.821
CA 8.79281 -2.51688 52.0425
CA -1.0359 4.32797 37.888
CA -37.5781 11.4169 57.003
CA 17.9352 1.60084 66.5479
CA -2.1527 23.0072 45.2299
CA 15.2928 7.27307 36.8234
CA 21.1665 -9.7339 69.9497
CA 16.2809 2.3445 61.0577
CA 1.75879 12.7849 51.2482
CA 21.3017 -4.40911 48.8403
CA 3.76754 -19.3091 59.5667
CA 0.966053 15.9789 86.2547
CA -1.66213 28.9138 37.9903
CA 5.97926 -18.6461 62.3886
CA 3.7144 -5.89154 49.4154
CA 1.64135 9.70725 41.5504
CA 0.548155 10.3339 54.6986
CA -1.53419 10.29 53.3092
CA 14.0398 -0.859242 24.6392
CA 12.0485 -15.4187 63.3356
CA 15.623 2.97696 21.8895
CA 7.4268 12.067 38.4147
CA 1.05931 20.5441 37.6451
CA 9.14694 17.3312 32.012
CA -4.53466 -1.57406 40.6663
CA 22.948 19.6175 36.5126
CA -2.69076 16.684 50.9401
CA 18.7949 -2.41777 43.9577
CA -1.86492 19.2752 48.2401
CA -4.85822 0.957237 40.9744
CA 32.9925 3.41513 66.8851
CA -2.30567 15.8507 46.6163
CA 45.6809 -13.1127 56.6699
CA 6.47557 38.66 52.8714
CA 14.93 16.0592 11.9769
CA -19.8588 -6.40815 26.2595
CA 6.05983 0.100496 50.9934
CA 28.5466 0.186265 28.3237
CA -0.251624 -30.8176 32.3125
CA -22.0665 -13.8874 43.3803
CA 13.9456 -11.6533 55.7935
CA 2.78254 18.9255 31.8307
CA 2.76526 -12.6286 53.7831
CA 26.3332 6.83115 38.5602
CA -23.4039 13.8933 46.5478
CA 12.2455 -9.24104 49.4294
CA 22.8902 -7.67667 35.4366
CA 13.4457 1.57966 66.4644
CA 17.6482 3.68348 66.4902
CA -2.2858 7.31394 38.1861
CA 1.92889 3.88205 46.8143
CA 8.1584 -12.0259 51.7134
CA -23.6278 -11.8251 23.9182
CA 21.3616 1.07368 44.2811
CA 36.5901 -6.87233 63.5137
CA 14.643 1.20693 40.2339
CA 0.649414 7.70625 43.6114
CA 13.8371 14.8558 18.2905
CA 18.8864 -3.02922 60.2378
CA -17.8891 -15.2935 45.4758
CA 11.5624 -6.25533 73.1569
CA 1.30808 1.24427 45.1243
CA 19.4658 5.7616 60.0247
CA -8.15817 -10.9308 36.7574
CA 0.483061 -11.3551 48.9913
CA -3.26838 3.21703 36.5817
CA -16.6394 -22.9696 35.2802
CA 20.4639 -6.36604 68.213
CA -6.25052 13.8008 84.9191
CA 29.0134 -2.67674 66.7876
CA -30.4625 -8.26565 71.4208
CA 18.6886 -1.76977 78.1316
CA 37.4808 -9.18439 65.7445
CA 9.90111 13.0383 23.5992
CA 3.54878 16.8039 41.0998
CA 20.2815 0.171811 66.417
CA 17.9495 -23.8505 59.3311
CA 13.4479 -2.40953 40.6706
CA 29.645 3.47063 66.337
CA -0.801096 3.86204 41.178
CA 23.5519 -5.01139 71.3998
CA -0.173086 18.6626 49.5581
CA 21.549 -3.6247 40.8928
CA 31.2573 6.62983 65.0188
CA -2.6141 -20.8641 73.8781
CA 8.02128 -8.87505 76.7738
CA 7.5674 -13.2513 54.3574
CA 3.28267 -18.0354 61.2673
CA -5.4199 9.48029 52.7926
CA -2.51604 -20.9839 37.5239
CA 7.67253 19.8429 25.9026
CA 10.353 -3.26855 39.0646
CA -6.24955 31.7703 54.0658
CA -7.51046 2.89112 38.0169
CA 0.903652 9.71153 45.6534
CA 6.02034 -2.97925 49.6159
CA 12.753 8.47457 35.7872
CA 17.4697 -21.1393 26.0944
CA 13.1215 14.8172 10.7668
CA 13.7044 10.4521 38.1878
CA -1.28407 1.86554 42.9539
CA 2.60246 2.39072 41.9585
CA 13.9901 13.8546 14.9858
CA 36.2936 -9.63425 52.3375
CA 13.7686 19.1008 11.7783
CA 26.0112 -10.0709 47.1745
CA -16.2282 28.608 37.9305
CA 20.6281 3.26717 16.7869
CA 26.2054 -10.6458 59.2883
CA 24.9563 -6.88492 50.7111
CA 22.752 -11.8679 55.0163
CA -32.2123 8.51084 59.6961
CA 4.14966 -15.4434 57.8775
CA 4.7845 13.1357 22.1511
CA 24.0512 0.600765 71.3075
CA -21.6851 13.4416 49.1551
CA 4.90182 -23.2009 61.2295
CA 21.8374 -2.77 71.7936
CA 4.42466 17.7925 43.1192
CA 12.0802 -5.76145 40.7135
CA 24.5755 -4.33608 68.1437
CA 4.06619 7.75842 53.7153
CA -8.03921 -8.93788 39.0532
CA -2.94931 -21.3807 34.9292
CA 22.2255 -13.6544 54.4157
CA 3.99785 -15.5264 60.1713
CA 4.76722 24.1993 21.4378
