489

CA 45.9867 -2.83018 40.5351
CA 27.3063 -20.0966 57.5306
CA 35.9289 -0.664414 57.6576
CA 39.1498 -2.87947 34.1159
CA 5.91434 9.39196 58.086
CA 24.952 -20.8686 43.6406
CA 28.1647 -4.1239 71.8873
CA 26.7728 -19.263 54.3512
CA 31.543 9.32218 81.7898
CA 20.5341 -9.19372 59.9403
CA 22.8719 -1.39876 69.9151
CA 40.1976 -26.9658 37.2614
CA 22.1148 -30.3198 41.9694
CA 18.9757 15.3266 44.4902
CA 16.6506 17.6544 49.246
CA 20.4016 -27.9595 47.3557
CA 21.0516 8.77957 12.2617
CA 49.2268 -22.0405 43.7419
CA 27.5658 -2.55038 28.8331
CA 49.7706 -30.4865 62.575
CA 30.6201 4.97005 71.5985
CA 8.52014 -18.4794 62.0556
CA 22.5983 -7.4385 39.8571
CA 11.3577 7.03477 10.1527
CA 29.3547 -8.01548 42.7512
CA 23.9425 -7.37876 53.3018
CA 43.4463 -30.8785 43.5855
CA 22.5455 -15.1379 57.8296
CA 26.596 -16.2913 71.8935
CA 30.7155 -9.52771 54.2717
CA 23.6751 -5.00429 58.5987
CA 23.2496 15.1 51.5756
CA 22.1158 -28.0656 72.8318
CA 33.3775 -15.5038 85.8308
CA 42.5601 -11.5169 73.7673
CA 19.4741 -8.27288 37.9983
CA 56.4564 -20.0268 48.5035
CA 20.6109 -14.9735 67.2085
CA 14.3934 3.49516 11.4371
CA 25.1209 11.7985 45.48
CA 46.0804 -21.1878 53.8339
CA 41.9953 -1.58859 65.8152
CA 35.2495 13.8065 53.114
CA 9.9427 0.763955 60.264
CA 22.3444 -9.30231 51.2627
CA 26.4301 5.56169 65.9291
CA 23.6307 -1.81061 81.6794
CA 36.0365 -10.2053 56.0745
CA 31.7797 -9.20322 46.307
CA 35.8887 6.02323 70.3979
CA 25.7054 -2.01002 77.3538
CA 22.7893 3.85235 28.1403
CA 38.0859 1.12523 39.0238
CA 48.6279 -28.8777 65.2627
CA 16.7464 -7.45128 62.1275
CA 34.149 -8.62902 50.463
CA 6.80103 -4.98643 57.243
CA 25.5038 8.4838 44.3429
CA 41.8893 -7.32603 46.545
CA 24.4171 -12.5427 53.4585
CA 37.8595 5.1836 48.0342
CA 35.7307 5.08645 54.5113
CA 30.6466 -7.2575 47.4671
CA 30.2518 -15.4945 53.6445
CA 26.5186 -29.0297 80.7723
CA 31.4813 -0.309414 88.1131
CA 36.4631 -22.225 60.2607
CA 42.9795 -14.8228 69.4891
CA 39.2711 7.38955 62.5343
CA 41.4463 -6.87159 59.9508
CA 35.6461 1.42111 82.1344
CA 25.8037 -11.5383 31.8336
CA 35.287 -30.8057 48.6137
CA 35.0217 -25.0198 55.2525
CA 41.5572 4.62483 58.253
CA 29.2098 -13.0696 43.2558
CA 35.5337 6.93945 49.942
CA 48.1646 -11.8654 60.3287
CA 53.6648 -24.0452 45.8272
CA 32.6411 -23.234 44.8162
CA 34.7288 9.00474 62.8779
CA 19.5231 -24.3097 73.9226
CA 33.5069 4.00214 85.7001
CA 17.2013 11.6938 16.1272
CA 17.5914 -8.79048 38.3012
CA 47.177 -7.5029 63.6368
CA 19.4138 3.95136 23.8322
CA 41.689 -10.5326 61.0173
CA 24.1238 -2.73791 62.5842
CA 23.5262 -12.4882 49.7313
CA 23.5953 -15.3301 85.9529
CA 26.7575 -22.8239 69.1059
CA 37.8402 2.09636 59.8079
CA 33.3551 -19.989 82.5491
CA 9.19985 -6.83194 62.5622
CA 41.6616 -23.7047 68.1366
CA 33.0703 -18.1448 83.2417
CA 15.0575 -9.5189 52.6526
CA 7.92688 -20.9772 53.2359
CA 35.5609 -0.907955 81.2227
CA 27.1144 -22.6748 66.2162
CA 34.1783 -11.7575 42.5989
CA 25.6889 6.34057 48.3317
CA 17.8448 -12.2026 66.6482
CA 22.2011 -8.85737 27.0199
CA 24.2612 -12.9305 77.2697
CA 17.2515 15.6716 52.8675
CA 42.1339 -7.00445 65.1752
CA 20.874 -20.1062 55.7054
CA 29.4696 -0.444708 68.6832
CA 40.4781 -4.3042 46.5933
CA 12.2712 -17.2861 52.4274
CA 23.3016 -20.0541 52.6646
CA 22.8725 -20.224 55.3112
CA 23.3229 4.87404 54.2828
CA 7.79752 -20.849 49.1145
CA 25.8136 -13.8666 41.4708
CA 49.7119 -23.6623 45.2193
CA 30.3392 0.48812 79.1755
CA 47.7576 -7.14978 59.6771
CA 25.6298 -7.15894 58.0587
CA 21.0414 5.00271 7.55074
CA 41.8995 -8.36256 49.4883
CA 11.193 -3.62694 62.4155
CA 30.4116 -9.27335 77.0669
CA 20.8838 -25.9834 42.9992
CA 30.6933 -27.7791 50.554
CA 25.726 -18.6122 84.669
CA 44.8236 4.82976 45.3184
CA 45.494 -20.443 58.2548
CA 37.9561 4.78769 84.5842
CA 41.8273 -21.9063 55.5646
CA 26.9275 1.49531 45.5633
CA 28.6381 -16.2014 92.6585
CA 18.3737 -24.6123 32.5538
CA 29.6511 0.425848 64.6824
CA 26.3699 -23.1566 78.2379
CA 30.8618 -18.4882 49.6242
CA 33.7219 -19.4866 58.7054
CA 32.3383 -7.47945 60.7152
CA 23.0928 -7.91887 16.9307
CA 21.4124 0.943888 6.71988
CA 32.6961 2.87037 69.435
CA 34.8138 2.66514 70.3075
CA 30.3863 -12.5973 50.4764
CA 38.0555 9.59407 51.5791
CA 31.5425 -5.46905 53.1101
CA 38.7982 -28.9895 41.0246
CA 27.4163 -20.0956 67.9738
CA 25.6954 -0.976042 56.8276
CA 47.5712 -22.3143 64.346
CA 11.9502 -20.1994 53.809
CA 36.4919 -2.25808 38.5449
CA 30.6667 -29.6456 53.1815
CA 25.0828 -17.2977 68.8624
CA 34.3851 -22.8359 55.8055
CA 28.3594 -5.31605 64.9943
CA 44.7189 -21.3484 51.5688
CA 26.7019 -13.1084 80.3137
CA 49.9001 -11.3047 60.1735
CA 7.68888 -9.26019 56.1196
CA 9.09129 -13.7486 56.0902
CA 44.992 -21.6957 47.3195
CA 16.2256 -13.2769 60.9089
CA 27.3951 -12.6272 56.6139
CA 29.7388 -26.2594 41.2218
CA 18.2357 -3.93876 37.5171
CA 15.7802 -25.2935 31.0983
CA 42.6072 -16.3484 70.9566
CA 24.0614 11.1173 48.1275
CA 19.5662 0.100908 80.6397
CA 25.5447 -5.03592 57.8756
CA 53.1637 -11.2591 71.8339
CA 28.9991 -6.81476 55.0104
CA 42.0693 -39.2798 55.0795
CA 41.7262 -38.5588 52.7932
CA 25.2292 -26.7912 72.6778
CA 36.2915 2.69039 85.5335
CA 41.8948 -3.40574 63.3441
CA 40.2254 -26.7743 63.5016
CA 30.482 3.13712 84.6032
CA 39.2546 5.51496 55.0551
CA 37.532 -25.2637 63.5742
CA 26.1219 -13.3864 27.1153
CA 38.5482 -26.5627 62.62
CA 33.936 -0.348677 76.348
CA 40.0031 -13.1414 54.7141
CA 28.3823 -15.8022 47.8705
CA 25.7966 -13.2422 68.2757
CA 26.7066 -16.2007 46.1197
CA 57.0007 -21.3764 45.7869
CA 42.1478 -6.12133 56.0596
CA 30.0158 0.261913 24.9872
CA 37.9693 -5.35809 66.0438
CA 48.8092 -26.4121 64.7325
CA 40.4328 9.2484 66.4514
CA 49.7733 -16.4453 76.3227
CA 23.6221 0.499027 83.2876
CA 26.4384 1.09146 51.0751
CA 32.035 -1.6675 76.929
CA 18.883 -19.8433 32.5083
CA 27.6621 -4.62724 56.7798
CA 13.527 -15.7338 58.6688
CA 25.8892 -22.2208 76.1643
CA 21.5479 5.68869 20.9023
CA 27.0599 -18.2996 88.6785
CA 27.4633 -7.02789 75.8661
CA 39.6017 0.179585 34.1993
CA 44.388 -13.7691 70.3662
CA 38.8544 -20.2346 62.1559
CA 42.462 -3.758 61.3
CA 8.25561 -15.7459 56.2912
CA 47.4326 -22.3616 57.2881
CA 29.1663 -4.41113 28.8712
CA 36.5799 -35.7423 53.8167
CA 34.5521 -35.4451 53.6117
CA 25.4759 2.24983 52.2612
CA 26.2734 -14.7476 43.291
CA 41.2925 -30.5833 56.1043
CA 42.1021 -34.9633 54.4159
CA 34.6945 -15.0673 36.4358
CA 18.3224 -9.17529 67.0389
CA 44.9703 -18.4107 45.5124
CA 34.4127 -22.5656 64.7602
CA 35.7653 3.39608 44.1331
CA 22.1237 -21.8117 50.454
CA 48.9501 -22.3079 39.9375
CA 27.7283 11.4848 44.713
CA 33.0466 -0.68459 83.5345
CA 13.1386 -4.31103 58.8739
CA 19.4067 8.77681 16.3166
CA 36.6332 -5.40425 63.0166
CA 46.4667 -16.6351 77.3723
CA 7.19834 5.39627 60.9502
CA 40.6479 -5.08351 42.9187
CA 44.6037 -11.9755 41.2745
CA 35.1184 -25.076 49.558
CA 39.9644 11.3983 56.181
CA 32.9265 -9.80324 52.3818
CA 34.3915 -31.2272 46.8162
CA 43.0901 -24.5439 45.0192
CA 45.2799 -27.5599 60.237
CA 17.4152 -13.2795 70.382
CA 26.032 -14.9763 58.557
CA 34.5922 9.07491 50.8924
CA 41.1903 5.70302 61.7723
CA 43.908 -3.70498 50.7533
CA 51.8992 -15.3975 58.3715
CA 25.1968 1.02208 58.0099
CA 17.2285 3.65227 7.27176
CA 18.6801 -17.3694 35.7619
CA 17.7577 -5.38057 51.7179
CA 44.4475 -0.119052 53.2441
CA 21.9582 -25.9575 79.671
CA 23.8845 -19.9231 67.8155
CA 26.2407 -5.89172 37.1649
CA 26.9967 12.5562 46.3321
CA 44.4926 -1.77932 43.8072
CA 21.4539 -15.8726 64.2575
CA 40.8335 11.2773 70.1594
CA 34.4774 5.55994 42.4578
CA 6.75192 -4.60896 60.6798
CA 55.3618 -20.5109 44.4175
CA 24.2774 2.37731 46.609
CA 10.1695 -13.7985 61.6382
CA 44.9478 -16.2518 73.8778
CA 27.6575 -12.0995 28.8771
CA 57.1162 -30.1254 47.3949
CA 22.1857 -10.7401 50.0221
CA 43.0256 -28.8094 64.0954
CA 22.8841 -3.53044 28.2368
CA 30.2097 -6.95278 45.4066
CA 45.441 -26.5433 57.1716
CA 32.2812 -24.2672 53.749
CA 36.1871 9.08934 81.8318
CA 24.6807 10.3278 68.4374
CA 39.8934 -17.2303 67.2736
CA 49.4978 -17.2735 61.9713
CA 22.7569 -10.192 42.4664
CA 47.1396 -31.0614 41.3221
CA 15.8873 -1.61394 55.8258
CA 19.9065 4.99169 5.56659
CA 36.9588 12.4164 65.9618
CA 35.5893 -6.92578 44.408
CA 50.186 -8.75745 70.1564
CA 25.3036 -14.3897 82.906
CA 50.722 -20.7607 61.4474
CA 30.169 -16.3395 83.1321
CA 37.0169 -27.8089 55.3225
CA 18.9833 -5.45892 27.7636
CA 37.7318 12.8037 61.1404
CA 33.2054 -9.5405 41.7179
CA 48.4637 -23.9654 46.7486
CA 10.3179 -5.54334 57.6997
CA 20.5536 -5.92214 22.6745
CA 23.3382 -15.968 31.2028
CA 19.4257 15.8341 46.5179
CA 23.3177 10.5023 44.5007
CA 19.7603 -13.8188 34.1844
CA 29.311 -16.9814 41.3765
CA 44.3925 -18.8296 58.3671
CA 24.0632 4.00728 25.4704
CA 33.8489 5.66665 51.9879
CA 35.2106 -10.2555 51.8829
CA 17.066 -27.3232 70.6996
CA 40.8442 -9.24817 57.2657
CA 45.7575 -4.80584 59.069
CA 31.1061 -1.60132 44.4972
CA 27.3029 -10.0846 77.6677
CA 25.1563 -12.7375 58.4744
CA 38.4998 -6.45713 67.7207
CA 42.797 -16.9697 63.5929
CA 12.9652 -8.17681 36.4537
CA 25.0272 -5.93304 69.4638
CA 12.0804 -14.7224 61.1499
CA 40.2489 -5.20426 68.9054
CA 39.6405 -35.8997 48.8128
CA 48.59 -17.07 64.0466
CA 35.4236 -16.8412 63.6723
CA 0.306601 -18.6989 54.9333
CA 5.69804 -12.3769 51.8126
CA 45.441 2.25835 39.7975
CA 33.1664 0.499209 36.8983
CA 20.3965 -17.4011 44.8381
CA 45.7572 -4.09613 38.3987
CA 37.0008 -4.25099 83.174
CA 40.0773 -33.2932 55.0209
CA 17.2554 -15.077 35.69
CA 42.9121 0.528691 41.8812
CA 45.8146 13.8479 73.2076
CA 41.108 -34.9403 57.3123
CA 18.9446 4.08739 2.93122
CA 35.3231 -15.3516 53.647
CA 21.5969 16.4752 46.7863
CA 23.8267 0.633255 44.4404
CA 22.0156 7.13565 65.9829
CA 29.0537 -25.1625 43.0098
CA 37.2179 9.96183 50.011
CA 24.9963 -5.61904 47.6299
CA 24.2186 -11.0795 71.3003
CA 13.5209 7.19039 5.6365
CA 44.5522 -27.2346 64.925
CA 27.7038 3.86103 54.8122
CA 27.0596 -25.9008 40.5031
CA 43.9468 -1.93873 40.0655
CA -3.02277 -22.1673 53.2392
CA 19.8986 4.92691 20.4399
CA 30.1911 -13.3845 32.032
CA 56.0767 -17.6017 48.1736
CA 39.3954 -6.37353 78.1048
CA 27.9691 -27.9916 51.1055
CA 21.3923 -2.57143 73.9489
CA 46.996 16.1597 73.7509
CA 29.7305 1.28912 43.3555
CA 39.9931 0.407018 61.5262
CA 37.2244 2.27905 70.8698
CA 44.7475 10.5157 69.8333
CA 22.0241 -0.202117 65.1819
CA 12.5684 -20.4016 47.2013
CA 40.8672 -5.40628 32.0591
CA 15.7003 -12.4601 36.0333
CA 46.0612 -20.6395 43.21
CA 31.3738 -19.866 94.1095
CA 60.0455 -27.5559 44.1287
CA 8.1031 -5.17249 59.5626
CA 34.1916 1.72043 80.4808
CA 32.6599 3.15696 45.9066
CA 23.5588 -22.48 73.6585
CA 16.0608 -7.49743 39.0034
CA 44.9397 -36.7592 54.5237
CA 18.6733 -7.68471 60.5435
CA 29.4462 -7.51393 34.304
CA 32.0559 -17.6014 86.9369
CA 48.6314 0.690805 38.2021
CA 31.9427 -4.26403 44.666
CA 34.6243 -2.47341 50.8616
CA 32.4153 -7.63462 40.1399
CA 21.1068 -13.1245 36.9564
CA 36.7737 11.0174 54.0378
CA 22.3002 -0.410408 78.5307
CA 52.2199 -13.6762 76.5494
CA 31.2999 -0.836158 51.9424
CA 42.6689 -8.07812 42.3229
CA 49.9346 -10.6034 71.9598
CA 28.3332 15.0623 51.4239
CA 45.2576 2.77335 45.74
CA 25.0409 -15.838 80.2656
CA 3.07795 -20.2995 62.4582
CA 17.253 -11.4649 62.5377
CA 22.4895 -8.41697 56.2402
CA 16.2099 -1.39081 65.1661
CA 48.9241 -13.4528 74.1101
CA 12.6309 -7.57619 44.4873
CA 41.6318 -14.4741 65.3976
CA 15.8112 -22.5941 48.2452
CA 23.5302 -0.667586 26.8211
CA 24.7612 3.61514 67.1134
CA 35.0394 -24.8394 40.3814
CA 6.99877 -7.30927 55.0045
CA -1.03355 -12.5226 54.8976
CA 24.5133 -1.85563 47.2507
CA 28.8636 2.21656 73.6298
CA 25.5105 9.2058 62.8101
CA 17.1399 -13.8294 56.6871
CA 17.2507 0.202958 64.744
CA 18.2387 12.9778 51.2296
CA 44.7898 -35.5353 44.1259
CA 13.7034 -12.7082 59.8647
CA 21.48 -13.1882 43.6506
CA 42.5789 3.16404 37.2379
CA 47.0655 -8.60457 55.2038
CA 17.8094 6.87546 18.8346
CA 27.5546 1.7237 60.3165
CA 42.3053 -35.9315 46.7078
CA 30.1408 -15.418 84.9222
CA 23.0112 -14.1244 33.7055
CA 29.1468 -1.66386 29.5253
CA 41.36 -16.9914 69.582
CA 38.8832 -7.62466 47.9279
CA 38.7518 -29.0489 62.5442
CA 32.5202 -8.81931 35.9001
CA 41.629 -4.0757 80.036
CA 53.7522 -20.3339 50.4211
CA 20.736 -6.19915 19.2606
CA 37.0015 -18.6139 63.6792
CA 40.9348 -2.36087 34.2067
CA 2.84514 -14.3869 53.9698
CA 33.7349 -25.4148 57.2241
CA 37.2492 3.18661 61.1556
CA 55.6856 -20.0466 46.216
CA 9.95613 -5.88896 40.0166
CA 31.6306 -9.42397 69.6467
CA 22.1002 -22.5648 48.3892
CA 20.2881 -10.3825 80.208
CA 35.269 -13.2285 40.0407
CA 20.0555 12.0935 65.178
CA 33.4863 -11.3678 40.6459
CA 17.9226 14.8932 47.0902
CA 33.3852 -11.1287 87.8907
CA 31.0299 -13.2053 36.8301
CA 25.9809 7.91396 61.0031
CA 22.6164 5.72256 8.76
CA 49.986 -14.4135 75.3819
CA 18.4374 -9.02102 18.6415
CA 33.9901 -0.672914 35.6052
CA 39.1448 12.2655 60.156
CA 21.2839 -4.9752 81.304
CA 38.7962 -7.80224 74.1557
CA 27.2732 -17.3397 42.7548
CA 29.8535 -20.0208 46.727
CA 37.1256 13.8115 56.2456
CA 30.4527 4.73136 45.5791
CA 38.6555 15.0786 55.1162
CA 41.1107 -38.1687 47.5305
CA 21.5811 0.78681 3.82813
CA 22.7179 11.5924 46.4461
CA 23.1074 -24.4032 49.0833
CA 39.6222 -9.09849 46.1377
CA 13.3989 5.18598 4.37007
CA 16.8682 -3.3133 53.257
CA 58.252 -24.9238 45.381
CA 33.9163 4.66034 39.6169
CA 17.767 17.2314 43.6359
CA 34.077 -20.1702 54.8092
CA 34.3906 6.71732 67.7913
CA 26.4242 -23.7244 90.5776
CA 44.8892 -31.4105 57.2961
CA 28.5507 -4.63313 68.9975
CA 43.7028 -4.74152 57.2035
CA 22.8312 -2.49755 75.3737
CA 39.1909 5.02401 65.8516
CA 35.0561 -2.41632 36.4517
CA 33.4518 -11.1341 44.2925
CA 44.9974 -17.0259 61.7253
CA 37.9806 -2.36013 37.2818
CA 12.8859 -6.07806 52.9813
CA 51.3556 -12.8125 74.5071
CA 26.3331 0.810007 53.7982
CA 21.2402 -15.6648 44.9332
CA 11.9177 -12.4687 57.2497
CA 34.2404 -14.4861 52.4785
CA 51.8715 -24.0249 46.4563
CA 26.6209 9.71641 48.7074
CA 25.9817 -16.2656 23.5969
CA 35.4605 16.8028 52.1216
CA 20.5779 -8.61957 19.4555
CA 17.7268 -6.7228 48.6518
CA 20.9632 -10.6821 30.1338
CA 44.8449 -3.78891 64.9541
