489

CA 26.324 -14.2793 76.5571
CA 27.3063 -20.0966 57.5306
CA 35.9289 -0.664414 57.6576
CA 44.0659 -19.0915 58.4
CA 25.22 -1.25215 57.4479
CA 30.6243 -13.6579 38.6381
CA 35.8956 -30.1456 58.5181
CA 36.8397 -24.6264 61.9372
CA 21.8062 -22.348 68.3695
CA 20.5341 -9.19372 59.9403
CA 22.8719 -1.39876 69.9151
CA 40.1976 -26.9658 37.2614
CA 17.6591 -23.7266 47.7925
CA 38.6325 4.57477 52.3071
CA 26.7763 -3.00564 46.9881
CA 17.0239 18.0353 49.3786
CA 21.0516 8.77957 12.2617
CA 31.1959 -27.3817 44.7616
CA 19.8303 -17.6797 38.9873
CA 49.7706 -30.4865 62.575
CA 48.33 -15.6023 59.0089
CA 8.52014 -18.4794 62.0556
CA 23.4997 -5.51661 82.372
CA 35.4802 -16.1936 83.5227
CA 46.0221 -10.9779 43.8884
CA 52.1788 -24.7275 42.139
CA 43.4463 -30.8785 43.5855
CA 22.7336 -15.7547 59.5206
CA 26.596 -16.2913 71.8935
CA 31.4937 -2.08983 64.0906
CA 23.6751 -5.00429 58.5987
CA 48.8545 -2.66342 37.6925
CA 21.5463 -12.0817 59.5477
CA 33.3775 -15.5038 85.8308
CA 42.5601 -11.5169 73.7673
CA 22.7673 2.15277 58.1146
CA 25.8802 -9.84316 75.8145
CA 20.6109 -14.9735 67.2085
CA 33.8323 -4.50082 81.5899
CA 20.2311 -3.0444 72.6148
CA 35.1455 0.761626 45.7013
CA 41.339 -16.8417 63.1228
CA 35.2495 13.8065 53.114
CA 9.9427 0.763955 60.264
CA 22.3444 -9.30231 51.2627
CA 17.2706 -23.4818 40.2684
CA 23.6307 -1.81061 81.6794
CA 23.9102 10.3562 49.8368
CA 16.1488 -5.54798 61.8755
CA 35.8887 6.02323 70.3979
CA 10.8383 -7.91025 55.279
CA 45.2855 -32.3947 45.6682
CA 27.0325 -24.9696 92.4532
CA 5.22912 1.99403 63.087
CA 32.5593 -11.726 49.8489
CA 34.149 -8.62902 50.463
CA 42.3656 -10.1171 46.8946
CA 48.0807 0.415669 42.0098
CA 51.3584 -27.4638 66.3442
CA 31.1031 -3.79557 34.15
CA 37.8595 5.1836 48.0342
CA 37.5293 8.04728 54.7121
CA 30.6466 -7.2575 47.4671
CA 49.7561 -28.5203 49.188
CA 26.5186 -29.0297 80.7723
CA 31.4813 -0.309414 88.1131
CA 20.0197 -25.7696 69.0862
CA 21.685 -5.82142 25.45
CA 36.5059 1.74637 57.7987
CA 5.82314 -14.4305 55.9819
CA 36.0561 -0.116455 62.0422
CA 25.8037 -11.5383 31.8336
CA 30.3227 -13.9252 81.3416
CA 22.3387 5.69464 60.6775
CA 20.2345 1.24605 3.54608
CA 29.2326 -2.1503 48.1146
CA 24.7608 -13.0767 85.7062
CA 48.1646 -11.8654 60.3287
CA 31.1436 4.62182 69.7612
CA 35.6563 -0.013808 80.0648
CA 34.7288 9.00474 62.8779
CA 10.0796 -13.7278 56.0717
CA 18.4416 -2.47078 68.1731
CA 17.2013 11.6938 16.1272
CA 28.8761 -17.5594 73.7623
CA 35.064 -1.18956 42.6239
CA 19.4138 3.95136 23.8322
CA 33.9547 -4.70014 36.0031
CA 46.7554 -33.2689 58.0016
CA 32.8435 8.90486 68.8229
CA 23.5953 -15.3301 85.9529
CA 28.5908 -8.57075 61.8292
CA 37.8402 2.09636 59.8079
CA 33.3551 -19.989 82.5491
CA 20.4273 -7.59272 49.8714
CA 46.0678 -1.25024 55.6577
CA 35.3868 -2.507 70.551
CA 45.2031 -1.57651 38.7342
CA 50.5498 15.1188 70.9366
CA 47.1071 -9.55123 44.873
CA 28.5655 -14.4319 78.2109
CA 32.7307 6.74451 41.0341
CA 25.6889 6.34057 48.3317
CA 39.0939 -6.07582 53.8029
CA 22.2011 -8.85737 27.0199
CA 24.2612 -12.9305 77.2697
CA 23.156 2.2543 11.2567
CA 42.1339 -7.00445 65.1752
CA 20.874 -20.1062 55.7054
CA 51.1648 -28.0809 47.6977
CA 25.8681 -5.40673 37.8147
CA 12.2712 -17.2861 52.4274
CA 18.8703 -8.51736 49.2008
CA 22.8725 -20.224 55.3112
CA 23.3229 4.87404 54.2828
CA 32.9054 4.80846 44.534
CA 25.8136 -13.8666 41.4708
CA 49.7119 -23.6623 45.2193
CA 27.2047 10.4066 63.8943
CA 36.0583 -22.7998 40.0382
CA 30.5275 -7.90854 64.2654
CA 41.1063 4.71047 48.2862
CA 48.4964 -22.2965 68.2483
CA 11.193 -3.62694 62.4155
CA 18.4893 -5.43483 60.7061
CA 20.8838 -25.9834 42.9992
CA 30.6933 -27.7791 50.554
CA 27.1936 1.04544 57.2913
CA 37.4316 -5.98903 30.2459
CA 45.494 -20.443 58.2548
CA 37.9561 4.78769 84.5842
CA 41.8273 -21.9063 55.5646
CA 27.2752 4.77155 32.916
CA 28.6381 -16.2014 92.6585
CA 37.3659 -5.8856 54.3101
CA 29.6511 0.425848 64.6824
CA 26.3699 -23.1566 78.2379
CA 44.9086 -2.51094 60.6564
CA 33.7219 -19.4866 58.7054
CA 25.256 -11.6593 40.9132
CA 23.0928 -7.91887 16.9307
CA 21.4124 0.943888 6.71988
CA 32.6961 2.87037 69.435
CA 43.983 -10.9262 39.928
CA 22.018 1.49162 45.3674
CA 31.7821 -28.2555 47.9014
CA 31.5425 -5.46905 53.1101
CA 38.7982 -28.9895 41.0246
CA 48.0455 -9.9967 56.4503
CA 31.2 -12.3799 82.7467
CA 29.8274 -7.6241 44.0023
CA 11.9502 -20.1994 53.809
CA 27.5742 -9.87905 52.4219
CA 21.0408 -5.6355 27.8044
CA 44.7418 -8.10039 49.2178
CA 51.532 -8.99443 73.7812
CA 22.4428 3.75716 71.4561
CA 44.7189 -21.3484 51.5688
CA 26.7019 -13.1084 80.3137
CA 27.9514 -13.3319 58.5686
CA 7.68888 -9.26019 56.1196
CA 24.0266 -13.7128 68.2554
CA 34.399 -2.37135 40.856
CA 16.2256 -13.2769 60.9089
CA 31.5683 -15.8498 40.9226
CA 29.7388 -26.2594 41.2218
CA 18.2357 -3.93876 37.5171
CA 43.7768 -31.6922 46.8018
CA 42.6072 -16.3484 70.9566
CA 24.0614 11.1173 48.1275
CA 27.3235 4.96696 56.6591
CA 39.5361 -27.799 60.1068
CA 20.2525 -6.16908 48.3214
CA 33.4648 -29.2544 43.0085
CA 41.446 -31.8491 58.2733
CA 34.4322 -33.8948 43.3279
CA 40.6903 -8.466 49.9766
CA 45.9417 -12.9247 43.9107
CA 25.0551 5.93843 44.4167
CA 37.2017 -0.0604074 69.812
CA 30.482 3.13712 84.6032
CA 39.2546 5.51496 55.0551
CA 37.532 -25.2637 63.5742
CA 22.788 -20.8188 32.7794
CA 37.7352 -19.5043 54.8651
CA 26.5473 -11.0745 44.4805
CA 23.1468 -23.3181 54.7212
CA 28.3823 -15.8022 47.8705
CA 25.7966 -13.2422 68.2757
CA 16.4951 -18.5602 53.2721
CA 43.9916 -12.2943 58.087
CA 25.2298 -1.71036 29.7034
CA 39.8136 3.56919 54.8342
CA 37.9693 -5.35809 66.0438
CA 27.0457 7.87767 52.771
CA 40.4328 9.2484 66.4514
CA 14.3313 7.37313 3.75106
CA 21.8679 -12.5562 88.9255
CA 26.4384 1.09146 51.0751
CA 41.0587 8.32187 47.437
CA 54.8066 -11.35 71.0925
CA 27.7494 -4.39386 66.38
CA 42.7786 -2.71078 36.7701
CA 25.8892 -22.2208 76.1643
CA 23.7336 -17.8573 56.0596
CA 27.0599 -18.2996 88.6785
CA 47.6953 -17.884 61.7367
CA 23.0293 -3.56792 36.4868
CA 44.388 -13.7691 70.3662
CA 24.1391 -16.6032 35.7748
CA 42.462 -3.758 61.3
CA 36.4321 -5.34665 33.5842
CA 34.2995 -8.66036 58.2834
CA 29.1663 -4.41113 28.8712
CA 44.6469 -1.17091 49.1657
CA 35.8987 -25.1303 83.4639
CA 35.8253 1.06655 84.1904
CA 21.1995 -5.12038 71.1219
CA 16.4173 -21.5485 42.3414
CA 42.1021 -34.9633 54.4159
CA 19.7352 -5.41669 68.7686
CA 37.5815 4.56601 59.7463
CA 44.9703 -18.4107 45.5124
CA 43.6738 -27.7546 40.3582
CA 35.7653 3.39608 44.1331
CA 51.5478 -34.8221 56.0353
CA 48.9501 -22.3079 39.9375
CA 26.7597 12.3964 48.3763
CA 33.0466 -0.68459 83.5345
CA 13.1386 -4.31103 58.8739
CA 19.4067 8.77681 16.3166
CA 36.6332 -5.40425 63.0166
CA 38.269 -14.6874 55.9554
CA 7.19834 5.39627 60.9502
CA 32.1094 -0.133702 54.963
CA 44.6037 -11.9755 41.2745
CA 48.9863 -35.348 52.923
CA 18.855 16.3852 42.6488
CA 49.3816 -10.6177 77.4362
CA 26.6783 16.4015 45.8218
CA 21.9569 -5.91057 37.7619
CA 40.8799 -20.6408 60.4827
CA 43.4847 -24.6498 71.2113
CA 36.2796 -16.6492 66.0211
CA 38.1955 -15.7705 67.6572
CA 29.4448 -18.8771 50.3765
CA 43.908 -3.70498 50.7533
CA 22.7838 -19.2711 65.3236
CA 41.1598 -25.321 38.0608
CA 17.2285 3.65227 7.27176
CA 17.2443 1.8011 4.31634
CA 17.7577 -5.38057 51.7179
CA 30.805 -16.9446 62.6364
CA 21.9582 -25.9575 79.671
CA 23.8845 -19.9231 67.8155
CA 24.0647 -1.56564 24.4922
CA 17.1758 -10.2881 34.2566
CA 44.4926 -1.77932 43.8072
CA 35.2373 6.80244 52.7589
CA 40.5211 -7.08811 43.778
CA 34.4774 5.55994 42.4578
CA 22.448 -23.2288 65.8701
CA 42.2275 -35.2685 42.7567
CA 21.0559 -14.9197 41.3003
CA 33.1458 -14.058 31.7458
CA 21.0622 -6.84725 60.628
CA 17.7978 -7.36374 63.744
CA 49.6016 -13.4112 71.4804
CA 48.8491 -23.9659 70.1812
CA 43.0256 -28.8094 64.0954
CA 32.2728 1.94335 79.251
CA 46.3541 0.0708183 59.8306
CA 45.441 -26.5433 57.1716
CA 32.2812 -24.2672 53.749
CA 36.1871 9.08934 81.8318
CA 15.816 17.9851 52.6423
CA 39.8934 -17.2303 67.2736
CA 49.4978 -17.2735 61.9713
CA 22.7569 -10.192 42.4664
CA 12.8045 -3.97099 37.0146
CA 31.8823 -11.5721 39.6286
CA 19.9065 4.99169 5.56659
CA 39.2335 -25.2365 65.6663
CA 26.0364 8.89622 64.0362
CA 26.9873 -0.829448 56.964
CA 10.8165 -2.72822 55.1074
CA 40.6562 -5.08702 75.8681
CA 30.169 -16.3395 83.1321
CA 18.2383 -20.4484 46.6428
CA 18.9833 -5.45892 27.7636
CA 37.7318 12.8037 61.1404
CA 43.7681 -7.98015 44.2242
CA 48.4637 -23.9654 46.7486
CA 23.9805 -22.4659 60.0325
CA 20.5536 -5.92214 22.6745
CA 22.1089 4.67421 26.3549
CA 19.4257 15.8341 46.5179
CA 31.0674 -6.36832 43.4033
CA 23.3512 -1.70448 2.25982
CA 29.311 -16.9814 41.3765
CA 19.1185 -9.60399 26.4042
CA 24.0632 4.00728 25.4704
CA 30.5545 -7.7472 37.8596
CA 42.9099 -24.0242 69.4124
CA 54.4576 -24.062 50.2546
CA 28.8864 -13.0202 50.4921
CA 45.7575 -4.80584 59.069
CA 15.3327 -19.6867 52.0846
CA 15.7206 0.368491 59.3937
CA 41.0179 -4.94465 53.2771
CA 42.9719 -26.3765 38.4398
CA 30.2418 -8.79114 30.1714
CA 39.0555 -23.3563 35.3136
CA 44.3305 -20.6293 49.7803
CA 12.0804 -14.7224 61.1499
CA 40.2489 -5.20426 68.9054
CA 39.6405 -35.8997 48.8128
CA 48.59 -17.07 64.0466
CA 35.4236 -16.8412 63.6723
CA 14.8927 -6.79932 40.2812
CA 5.69804 -12.3769 51.8126
CA 50.0552 -21.156 43.3441
CA 34.3595 14.8872 47.8496
CA 14.0242 -1.59771 53.0147
CA 32.3143 -10.3169 52.5939
CA 37.0008 -4.25099 83.174
CA 40.0773 -33.2932 55.0209
CA 17.2554 -15.077 35.69
CA 29.9251 -16.6549 28.2275
CA 45.8146 13.8479 73.2076
CA 37.7145 -12 38.4449
CA 18.9446 4.08739 2.93122
CA 35.3231 -15.3516 53.647
CA 21.5969 16.4752 46.7863
CA 23.8267 0.633255 44.4404
CA 22.0156 7.13565 65.9829
CA 49.1141 -19.1438 62.449
CA 11.9769 -24.0794 44.7755
CA 25.1201 -0.91644 79.6674
CA 24.2186 -11.0795 71.3003
CA 20.3981 2.14517 5.44556
CA 44.1832 7.69327 67.3476
CA 44.0053 -3.97943 62.5077
CA 24.5657 -0.0590605 5.04203
CA 43.9468 -1.93873 40.0655
CA 41.606 -8.25648 44.6188
CA 19.8986 4.92691 20.4399
CA 30.1911 -13.3845 32.032
CA 24.8365 -11.4936 73.967
CA 23.5408 -19.0694 70.1958
CA 27.0076 -32.0249 86.3925
CA 21.3923 -2.57143 73.9489
CA 46.996 16.1597 73.7509
CA 24.9939 -3.6855 37.0683
CA 20.8906 -24.4824 66.1465
CA 19.8266 -6.46491 31.3201
CA 44.7475 10.5157 69.8333
CA 27.3659 -13.1802 67.2238
CA 12.5684 -20.4016 47.2013
CA 29.4986 -11.7613 30.369
CA 39.9278 -14.9116 54.5239
CA 46.0612 -20.6395 43.21
CA 44.5611 -8.07718 38.1363
CA 36.8817 -25.1545 40.8725
CA 8.1031 -5.17249 59.5626
CA 34.1916 1.72043 80.4808
CA 44.7159 -1.09598 51.1507
CA 23.5588 -22.48 73.6585
CA 16.0608 -7.49743 39.0034
CA 50.2164 -7.00103 80.2595
CA 18.6733 -7.68471 60.5435
CA 36.3238 5.59856 72.2323
CA 32.0559 -17.6014 86.9369
CA 48.6314 0.690805 38.2021
CA 31.9427 -4.26403 44.666
CA 34.6243 -2.47341 50.8616
CA 40.9175 -16.7009 55.4807
CA 21.1068 -13.1245 36.9564
CA 48.3646 -14.8341 55.3036
CA 22.3002 -0.410408 78.5307
CA 52.2199 -13.6762 76.5494
CA 26.9342 -2.71423 66.8434
CA 41.987 -20.0803 71.2623
CA 49.9346 -10.6034 71.9598
CA 41.7437 -1.03858 67.1375
CA 45.2576 2.77335 45.74
CA 20.7119 -8.29146 69.666
CA 20.8166 -27.1595 66.4868
CA 47.4189 -2.65716 54.1585
CA 22.4895 -8.41697 56.2402
CA 43.3883 -6.81393 34.2717
CA 48.9241 -13.4528 74.1101
CA 12.6309 -7.57619 44.4873
CA 34.2738 -23.3903 85.5519
CA 15.8112 -22.5941 48.2452
CA 38.7152 3.94232 49.1162
CA 24.7612 3.61514 67.1134
CA 35.0394 -24.8394 40.3814
CA 27.984 -5.07581 63.1996
CA 26.1274 -32.7603 83.49
CA 25.338 -30.4114 82.7555
CA 28.8636 2.21656 73.6298
CA 21.2917 3.92799 4.28282
CA 41.2616 -6.35721 35.6203
CA 25.6803 8.31136 54.7632
CA 18.2387 12.9778 51.2296
CA 44.7898 -35.5353 44.1259
CA 44.6353 -17.5085 62.976
CA 32.6029 -23.7014 84.2109
CA 42.5789 3.16404 37.2379
CA 47.0655 -8.60457 55.2038
CA 17.8094 6.87546 18.8346
CA 40.9465 -40.2054 53.9945
CA 42.3053 -35.9315 46.7078
CA 22.3881 -25.7323 65.8621
CA 23.0112 -14.1244 33.7055
CA 29.1468 -1.66386 29.5253
CA 41.36 -16.9914 69.582
CA 38.8832 -7.62466 47.9279
CA 38.7518 -29.0489 62.5442
CA 32.5202 -8.81931 35.9001
CA 41.629 -4.0757 80.036
CA 25.9804 2.10443 26.7656
CA 20.736 -6.19915 19.2606
CA 37.0015 -18.6139 63.6792
CA 40.9348 -2.36087 34.2067
CA 16.7397 -23.6302 46.0661
CA 33.7349 -25.4148 57.2241
CA 37.2492 3.18661 61.1556
CA 55.6856 -20.0466 46.216
CA 36.6069 7.00887 64.4692
CA 42.3388 -37.416 44.5967
CA 45.4923 -11.766 60.1843
CA 11.378 -13.0606 59.0951
CA 35.269 -13.2285 40.0407
CA 20.0555 12.0935 65.178
CA 33.4863 -11.3678 40.6459
CA 4.64476 -6.32975 57.53
CA 21.8474 -12.4257 69.0318
CA 31.0299 -13.2053 36.8301
CA 40.343 3.99518 52.1906
CA 22.6164 5.72256 8.76
CA 48.2874 -21.2201 66.2603
CA 18.4374 -9.02102 18.6415
CA 33.9901 -0.672914 35.6052
CA 25.065 -18.1223 58.4136
CA 29.0707 -17.3744 85.3771
CA 38.7962 -7.80224 74.1557
CA 46.4574 -31.6736 60.7671
CA 29.4656 -11.6462 44.9729
CA 37.1256 13.8115 56.2456
CA 25.8566 -11.0034 77.9448
CA 36.3237 8.41248 40.1399
CA 23.9413 3.11484 30.4808
CA 20.85 -17.8565 57.8961
CA 48.9883 -22.1285 62.6554
CA 34.289 0.539066 77.8496
CA 24.6308 -9.36101 53.4542
CA 13.3989 5.18598 4.37007
CA 16.8682 -3.3133 53.257
CA 42.9988 -6.1708 72.7199
CA 37.5336 -10.3222 78.2963
CA 22.6481 -1.50502 34.928
CA 34.077 -20.1702 54.8092
CA 34.3906 6.71732 67.7913
CA 26.4242 -23.7244 90.5776
CA 44.8892 -31.4105 57.2961
CA 28.8079 -2.69401 60.175
CA 43.7028 -4.74152 57.2035
CA 22.8312 -2.49755 75.3737
CA 39.1909 5.02401 65.8516
CA 28.8421 -2.18723 62.6136
CA 23.5434 -25.6836 50.3678
CA 38.3627 -25.156 42.4692
CA 30.4497 0.833214 43.6019
CA 44.0941 -34.3901 41.7605
CA 39.877 -10.2338 51.5337
CA 45.3881 -18.5862 47.5407
CA 21.2402 -15.6648 44.9332
CA 11.9177 -12.4687 57.2497
CA 36.6948 -16.2333 69.4497
CA 51.8715 -24.0249 46.4563
CA 33.9141 -25.9416 62.2678
CA 48.3859 -6.64367 73.4343
CA 26.3737 9.4394 51.9379
CA 20.5779 -8.61957 19.4555
CA 17.7268 -6.7228 48.6518
CA 20.9632 -10.6821 30.1338
CA 29.2936 0.123208 40.2813
