489

CA 39.8485 9.98689 70.5088
CA 27.4717 6.5677 40.151
CA 26.1843 -14.9067 88.1012
CA 25.2864 -9.82667 76.674
CA 27.7122 -12.8194 31.1753
CA 26.8985 -21.7084 57.2999
CA 30.8021 -9.39803 76.7233
CA 22.6572 -24.3122 41.5267
CA 46.17 -32.5703 62.8796
CA 38.6807 -0.469832 50.9408
CA 39.3367 -9.30974 67.4618
CA 52.7712 -27.5409 60.057
CA 28.9844 -1.47432 48.297
CA 38.6726 15.8687 53.5674
CA 40.113 -30.5984 51.0296
CA 45.114 -22.4704 55.7917
CA 47.282 -12.4233 70.2328
CA 48.4524 -10.0282 36.3737
CA 40.1415 -5.1243 47.9075
CA 54.1603 -17.7454 58.337
CA 24.7869 5.56793 56.5945
CA 35.0967 -27.5117 38.4402
CA 40.8184 -12.8334 77.5339
CA 32.2016 -8.77924 47.8592
CA 37.2717 -1.03107 61.2785
CA 27.7152 -18.018 82.8788
CA 24.6592 -0.10635 24.5778
CA 45.0388 -26.0438 45.9514
CA 33.8863 -6.21438 53.3324
CA 38.1439 -8.7157 55.2238
CA 29.3341 -15.4668 50.4158
CA 35.6999 8.90326 54.3023
CA 30.9222 -3.48313 68.2511
CA 41.4018 -20.8569 56.6465
CA 37.0442 -11.491 48.0891
CA 35.6299 -9.19051 43.2467
CA 41.396 -7.58458 47.2288
CA 33.4015 -1.75807 81.4872
CA 22.8395 8.59501 49.9325
CA 36.8906 0.236998 55.3627
CA 34.4679 -10.744 68.8157
CA 29.3209 0.237865 47.606
CA 42.0468 -14.398 31.9709
CA 43.2083 -21.672 67.6766
CA 48.5277 -14.7003 45.7401
CA 53.8207 -26.1858 63.2433
CA 22.8161 -9.85613 65.1333
CA 52.0808 -11.6176 58.5816
CA 53.3204 -18.6393 62.9497
CA 33.3824 -11.5001 81.8392
CA 43.9079 -7.11528 39.8456
CA 18.761 2.59131 9.17802
CA 39.314 -1.96941 23.4494
CA 31.2965 13.2644 53.2539
CA 28.9682 -2.53954 74.2558
CA 8.07831 -6.48048 57.6886
CA 27.4311 -4.12454 64.9723
CA 53.2872 -16.8153 60.275
CA 30.6823 6.16739 45.3238
CA 20.1272 -7.89949 24.5684
CA 43.7017 -21.733 65.4763
CA 17.0327 -27.3827 50.6358
CA 46.7307 -24.0334 65.8544
CA 47.3056 -1.3396 63.8557
CA 38.188 -0.730629 28.6694
CA 16.2087 0.0693624 66.3975
CA 23.4419 -6.60793 53.8101
CA 37.7056 -29.7002 38.6289
CA 44.4957 -5.3193 41.1434
CA 47.0573 -16.2729 42.212
CA 36.537 -10.4035 50.2485
CA 46.1995 3.28133 48.8551
CA 46.5961 -1.91154 31.0041
CA 40.2403 3.05756 48.6731
CA 46.0418 -5.98236 30.5573
CA 11.5627 -22.2551 52.1652
CA 17.9966 -2.91244 56.8279
CA 51.1745 -19.2945 46.8318
CA 29.4184 -14.8819 91.4676
CA 40.651 -10.561 25.926
CA 27.9585 4.38318 8.00654
CA 22.2294 -10.2539 56.3455
CA 24.7159 8.42702 49.5096
CA 17.2013 11.6938 16.1272
CA 26.8768 -1.148 7.59903
CA 29.697 -5.32453 24.9781
CA 27.9589 -16.9425 59.0847
CA 40.4035 -16.739 88.3634
CA 21.5532 -10.4643 29.5085
CA 33.3766 -10.9515 57.3425
CA 27.568 -6.46535 82.653
CA 51.1764 -13.7061 58.711
CA 47.5142 -4.25308 45.3873
CA 17.5276 -1.96986 61.3784
CA 43.5059 -3.60726 61.9692
CA 26.9062 -10.2752 30.2092
CA 43.3865 -1.44218 39.1875
CA 42.7799 12.1184 73.4021
CA 42.288 16.0141 51.4161
CA 38.8713 -13.7759 57.435
CA 19.8257 -2.06955 41.8331
CA 25.3154 -25.5117 47.707
CA 30.1065 -13.2834 78.6622
CA 41.8977 -12.8647 25.7429
CA 34.826 14.1158 52.3972
CA 25.1902 13.5782 50.8424
CA 41.2618 10.337 72.9961
CA 40.0529 -9.54321 76.5108
CA 31.0986 -27.0851 83.5845
CA 35.6362 -27.5686 43.9745
CA 36.5247 -18.4526 87.3102
CA 19.0924 -11.752 27.684
CA 29.8746 -19.1083 43.7891
CA 20.5391 -4.9952 41.9153
CA 36.6955 13.2065 54.0455
CA 38.7019 -25.3021 37.1254
CA 20.5796 10.5616 10.9353
CA 28.4388 -4.96294 72.4706
CA 22.3275 -17.1813 40.5996
CA 36.7551 -0.963257 75.5326
CA 28.8362 -19.2817 78.6179
CA 25.9301 -4.27521 30.0136
CA 11.6214 -12.1516 57.1046
CA 30.7669 -28.0704 41.0106
CA 44.5365 -7.42256 49.1083
CA 44.9189 -17.1885 46.8447
CA 24.204 2.15185 66.4078
CA 24.0681 -18.8331 87.6496
CA 24.8995 -24.012 42.0791
CA 28.1713 -25.0727 84.4721
CA 21.7271 -17.7389 61.108
CA 45.5054 -20.0078 53.5391
CA 40.5718 -15.6335 78.5049
CA 28.4495 -19.555 49.5917
CA 47.4909 -13.6919 68.2112
CA 20.1726 -12.1483 65.3686
CA 27.8886 -12.6346 74.6491
CA 32.293 0.14222 36.7274
CA 32.9096 -6.16225 57.295
CA 41.6746 -14.484 74.2114
CA 23.0928 -7.91887 16.9307
CA 21.4124 0.943888 6.71988
CA 24.7271 -2.85434 43.6241
CA 12.6027 -19.6775 53.2547
CA 16.6062 -13.9 18.0645
CA 35.0784 -18.6634 77.3764
CA 27.5258 -16.9399 46.7664
CA 38.7982 -28.9895 41.0246
CA 22.641 -22.9357 36.8282
CA 23.7108 10.4598 12.5997
CA 49.0107 -3.32983 52.7676
CA 50.719 -12.8223 53.45
CA 44.4718 -16.9268 56.1394
CA 49.0611 -15.4789 70.4895
CA 52.0156 -17.9039 67.8132
CA 47.733 -24.1882 40.2191
CA 45.3595 -7.34305 42.2487
CA 51.0852 -22.4296 66.3142
CA 29.712 -3.43912 49.869
CA 52.874 -19.7418 72.9297
CA 30.8478 -1.25391 57.6076
CA 39.1557 -11.4256 66.2862
CA 28.0558 -5.37555 23.457
CA 50.391 -6.21574 52.7341
CA 32.1202 -5.6994 63.4098
CA 23.3363 -12.8644 66.2174
CA 34.5934 2.99864 68.0158
CA 32.8756 -8.60238 72.6799
CA 26.0637 -19.0871 91.5948
CA 17.1207 -13.2985 53.5959
CA 47.2955 1.83241 29.9787
CA 26.3904 -5.45088 48.4571
CA 53.2181 -21.1 70.455
CA 49.0792 -9.906 38.7827
CA 42.275 -2.24302 44.2382
CA 33.7846 -26.3186 58.8367
CA 21.5053 -24.4802 64.2988
CA 20.6872 -26.0234 65.1651
CA 20.9587 -14.8683 33.4942
CA 34.8077 2.19993 43.0657
CA 21.915 7.73436 7.80376
CA 41.7824 12.2043 69.9096
CA 43.5676 -3.83969 36.2628
CA 22.788 -20.8188 32.7794
CA 39.6383 5.02775 66.0097
CA 34.2249 -17.3196 90.5523
CA 41.4667 -4.27534 73.4321
CA 24.8587 3.44861 3.64372
CA 20.8905 5.87774 21.7616
CA 27.5435 -3.72987 35.1279
CA 34.4777 -26.9557 83.9944
CA 45.0835 -34.9473 62.3697
CA 50.3024 -10.3307 55.0615
CA 42.9157 -16.9707 37.782
CA 28.8163 -22.1524 59.2139
CA 46.8509 -18.0651 41.8542
CA 36.362 -4.78802 64.5833
CA 39.3768 9.5614 45.9912
CA 36.3349 -17.8494 75.1765
CA 6.90199 -13.657 47.3463
CA 12.3906 -18.4476 49.451
CA 53.8937 -5.76861 53.6048
CA 38.9655 4.20008 69.9639
CA 17.5233 0.378259 70.4411
CA 18.5882 -24.1773 59.1045
CA 44.7419 -22.8419 67.8912
CA 34.7955 13.3603 55.3579
CA 20.6255 -22.4429 65.8724
CA 41.9932 -3.90206 26.113
CA 21.2536 -0.468329 53.4115
CA 25.4729 -7.50982 39.7929
CA 10.9272 -12.0785 53.0674
CA 21.9785 13.101 51.1342
CA 29.1663 -4.41113 28.8712
CA 47.0704 -29.9801 61.5877
CA 19.6249 9.70914 13.2794
CA 19.394 7.10287 55.699
CA 37.0898 -27.1755 54.2792
CA 51.7192 -25.7446 64.5369
CA 36.479 -3.88313 33.9567
CA 53.8429 -13.3696 71.0525
CA 21.6404 -4.46704 20.6414
CA 42.3025 -1.70312 57.2561
CA 50.2323 -33.0736 53.3443
CA 29.8728 -7.52716 51.8012
CA 39.8187 -3.54779 58.4454
CA 27.2071 4.93718 42.5385
CA 38.2323 -15.7683 47.779
CA 40.7918 -27.3701 38.9874
CA 42.364 8.6099 39.9521
CA 19.4067 8.77681 16.3166
CA 39.5534 -26.4105 56.8394
CA 54.2133 -29.1939 66.8165
CA 21.9772 6.90485 61.3499
CA 34.2039 6.94891 67.0747
CA 41.0515 -13.6681 63.488
CA 28.0238 -15.1356 42.9934
CA 58.4088 -27.7955 64.4466
CA 29.4677 -8.2385 78.5129
CA 27.8089 -12.58 84.9903
CA 19.7468 16.4867 48.0489
CA 29.18 2.0543 29.7791
CA 19.2399 3.68029 56.5015
CA 7.34258 -1.17184 62.6071
CA 12.2107 -28.8465 54.4335
CA 25.7925 -4.40738 0.487257
CA 47.6073 -31.9021 56.1012
CA 18.9 -14.2662 54.2574
CA 46.5207 -0.662487 41.9701
CA 17.2285 3.65227 7.27176
CA 24.3316 -6.12238 52.2495
CA 30.3175 -13.6899 89.5128
CA 28.2771 -28.562 59.2354
CA 48.3572 -15.5695 31.887
CA 36.3796 -6.5499 50.2321
CA 27.1203 13.9938 53.5922
CA 19.4443 17.8245 46.2337
CA 22.2938 -19.5487 27.5769
CA 31.517 -1.08212 64.1356
CA 29.6109 -25.266 56.6582
CA 29.5052 8.32788 57.1159
CA 31.1145 1.28567 68.2055
CA 30.2897 -10.4966 69.7248
CA 33.9702 -5.22404 76.0184
CA 42.1626 15.5562 66.7982
CA 35.7171 -12.594 57.4453
CA 18.2843 -20.6065 39.9794
CA 13.2044 -4.80204 48.5614
CA 34.0447 -35.8354 31.9779
CA 28.0058 7.03268 44.5241
CA 25.5464 -16.7231 30.5944
CA 34.8968 -16.5137 41.1583
CA 47.4639 -24.1225 53.8947
CA 44.6097 -13.8979 34.7315
CA 45.9681 -1.92829 43.222
CA 27.2806 -0.45788 60.7539
CA 34.4851 -16.7723 82.9733
CA 48.9087 -17.6597 46.8848
CA 28.4177 -9.45143 50.6848
CA 28.2764 6.80516 49.0268
CA 21.8193 -16.1857 65.9907
CA 11.2587 -2.08645 55.9149
CA 17.1482 1.98757 56.8311
CA 28.9744 -11.4614 60.2226
CA 31.0057 -2.63245 24.4489
CA 51.3415 -25.7005 73.7986
CA 36.2605 -1.02615 33.5942
CA 32.5961 -10.1079 49.3781
CA 29.6763 -10.2186 53.3395
CA 43.1433 -11.3861 66.9378
CA 35.4289 8.03524 40.7622
CA 31.4044 -27.1952 54.7142
CA 28.2736 -24.633 79.3658
CA 46.0461 -12.6745 43.168
CA 11.4039 -4.62992 54.0637
CA 22.1089 4.67421 26.3549
CA 27.7607 16.2106 47.9748
CA 39.0847 -16.4165 60.7471
CA 23.3512 -1.70448 2.25982
CA 38.3292 -15.4801 56.4719
CA 24.7098 5.38332 50.9724
CA 31.1743 3.34641 46.0647
CA 49.9279 -11.3018 68.4834
CA 39.8923 -6.91233 39.162
CA 37.2649 -29.241 43.8399
CA 28.8864 -13.0202 50.4921
CA 44.9473 -28.3491 58.5468
CA 17.7622 -21.7875 54.9162
CA 38.957 14.4172 69.3282
CA 43.7258 -16.6698 35.421
CA 38.4468 1.72016 68.9895
CA 47.3519 0.254843 47.1342
CA 49.9439 -0.617598 44.248
CA 20.7037 14.7321 45.2843
CA 12.0804 -14.7224 61.1499
CA 50.5593 -1.95068 54.045
CA 40.9189 6.74164 66.7612
CA 35.5252 -27.5461 40.2059
CA 7.99328 -15.8703 52.3023
CA 31.729 -22.3664 80.5753
CA 17.4401 -15.7734 61.8554
CA 27.1437 -14.2279 35.6415
CA 39.9769 -8.16805 73.881
CA 18.7226 -7.22771 54.3169
CA 21.5178 8.23289 52.006
CA 26.3546 -8.6464 37.2114
CA 39.0455 6.86005 42.7725
CA 37.4599 -18.4087 77.5877
CA 35.4369 11.3862 45.2721
CA 38.6982 -9.78977 31.3173
CA 13.885 -10.696 64.8026
CA 20.27 9.37828 50.9509
CA 28.8218 6.65804 46.4617
CA 46.0315 -2.36599 71.7813
CA 37.4124 -18.0556 42.8796
CA 24.2382 -16.8313 90.5555
CA 51.4507 -30.1344 68.7082
CA 13.2018 -19.6012 62.4521
CA 37.1826 1.41809 60.7002
CA 32.477 -7.67828 67.5027
CA 27.6325 -3.69461 39.5751
CA 43.5264 -21.6846 69.9449
CA 56.9945 -20.2378 70.1051
CA 33.0273 7.21008 44.7612
CA 38.2797 5.95584 59.4384
CA 31.9572 0.110056 54.3466
CA 30.6573 -0.495211 84.9104
CA 42.5245 -13.8996 28.6421
CA 21.1912 -15.2242 43.2403
CA 27.8524 -14.3648 59.9709
CA 24.607 -13.8587 64.3171
CA 37.1448 -13.7851 85.6595
CA 40.9263 -9.34147 64.0402
CA 45.8826 -18.2678 70.4785
CA 38.3246 -16.7892 80.6223
CA 36.8881 10.9227 54.9077
CA 28.5377 -7.48181 54.4934
CA 32.9221 1.5287 27.0843
CA 26.8483 -24.869 48.6931
CA 47.4175 -22.1575 42.7939
CA 30.0827 -32.0814 36.8652
CA 48.0339 6.77556 32.428
CA 29.3485 8.82849 44.8427
CA 34.5894 -0.270307 27.319
CA 42.2694 -10.9307 42.6428
CA 35.7544 -15.6345 85.9115
CA 40.4562 -18.6929 61.046
CA 20.0139 -16.374 30.2676
CA 22.0657 3.31509 51.3314
CA 5.33761 2.42224 59.3026
CA 28.8275 -3.4613 59.2345
CA 8.30975 -17.173 53.6095
CA 44.9297 -10.5604 22.4876
CA 31.6661 -12.5738 73.064
CA 49.3915 -20.6375 72.199
CA 34.6243 -2.47341 50.8616
CA 29.9713 -27.4257 56.9187
CA 29.2835 -29.145 37.6906
CA 38.0134 -13.8369 51.9609
CA 22.3363 3.84115 10.9999
CA 43.47 8.74329 36.4077
CA 29.8493 -22.4642 81.1833
CA 24.7713 1.90899 5.8839
CA 52.8162 -14.6769 59.3
CA 30.6041 -24.9579 59.5592
CA 49.6122 -10.7572 44.7104
CA 25.4841 -12.7382 38.9375
CA 23.7069 -8.91463 36.6431
CA 42.4224 8.13214 71.197
CA 36.8625 -10.9761 26.747
CA 31.368 -0.0420187 28.368
CA 11.655 -22.8415 54.3741
CA 37.0565 -2.80001 77.9567
CA 34.2738 -23.3903 85.5519
CA 20.8962 -7.48719 57.5669
CA 36.3489 2.43148 58.8785
CA 31.122 -7.62475 49.6435
CA 31.1515 -22.9863 58.0644
CA 36.0798 -10.1768 45.8074
CA 52.8166 -20.35 59.6645
CA 36.5368 -26.6049 61.8063
CA 21.4532 -5.47724 23.1643
CA 44.3273 -4.81611 52.7223
CA 35.0117 -21.0694 45.2151
CA 41.4757 2.90227 56.8049
CA 37.0947 -17.9538 81.9463
CA 9.77851 -5.15427 53.4679
CA 39.2862 -1.09085 60.115
CA 30.6394 0.090459 65.8422
CA 37.9893 -29.9789 36.8667
CA 30.0614 -20.3743 38.4984
CA 17.8094 6.87546 18.8346
CA 24.5552 -22.9677 89.5025
CA 39.5224 -27.4117 55.0163
CA 34.5897 -7.82909 65.1386
CA 44.7662 -25.0066 42.5299
CA 28.7819 -14.5749 86.0719
CA 15.8415 -24.9246 55.5757
CA 29.9053 -2.48811 39.1482
CA 39.4316 -39.1072 54.7078
CA 42.7546 -11.2656 27.7875
CA 32.7562 8.1466 60.2154
CA 27.7348 -2.37064 56.8167
CA 20.736 -6.19915 19.2606
CA 22.7829 2.65814 57.0606
CA 38.844 6.34547 70.1678
CA 14.4117 -18.3336 51.1046
CA 39.7921 -6.2899 64.0986
CA 27.7296 -14.542 63.7555
CA 39.3289 -31.4839 54.2492
CA 49.1115 -31.4021 62.6154
CA 14.9928 -5.13564 64.472
CA 33.2117 -7.5244 55.9644
CA 37.2437 -34.8723 57.0082
CA 45.9261 2.8554 45.309
CA 33.7183 -9.48673 67.5414
CA 36.7048 -25.2412 84.8881
CA 49.1011 -18.7075 50.0206
CA 38.6968 -1.57987 35.3526
CA 45.2454 -16.4877 36.4273
CA 15.4097 -4.92782 52.1768
CA 22.6164 5.72256 8.76
CA 38.9464 -17.2828 44.9855
CA 18.4374 -9.02102 18.6415
CA 51.6268 -15.8656 70.0362
CA 36.227 -29.4995 35.7315
CA 34.5577 -25.0275 41.0535
CA 48.9545 -23.7311 48.2873
CA 46.4574 -31.6736 60.7671
CA 29.5129 0.117117 42.5142
CA 35.4253 -29.4168 43.299
CA 28.7408 -16.8273 87.5976
CA 27.5768 -14.0627 46.2194
CA 49.1825 -11.654 58.7438
CA 48.6436 2.28445 62.3057
CA 42.9371 -20.269 64.6697
CA 22.642 -17.8685 25.9057
CA 48.8469 -6.83005 60.6902
CA 25.7918 -20.0591 40.8219
CA 20.4369 -8.71787 26.4037
CA 47.1179 -25.7899 54.6135
CA 11.6908 -2.91904 57.8162
CA 41.7063 -6.89478 33.2362
CA 34.6013 -8.12696 29.4153
CA 39.7973 -20.1632 76.549
CA 33.6983 -7.4198 40.589
CA 25.5962 -17.8185 66.8946
CA 40.8154 -17.8123 57.1441
CA 26.1338 -19.8615 81.918
CA 23.1956 -4.2295 25.487
CA 23.847 -19.4093 40.0019
CA 27.1768 -12.1345 58.1756
CA 7.94521 -3.99051 58.7689
CA 20.7961 -21.3716 63.9495
CA 32.0806 -15.214 59.2695
CA 48.2808 -26.6064 64.1633
CA 41.385 -17.7211 52.3956
CA 26.3119 -1.79379 65.5671
CA 14.2049 -11.5279 62.8767
CA 27.7591 -8.43996 38.3341
CA 33.9038 -31.3954 32.3413
CA 54.9787 -23.2676 61.1182
CA 16.0767 -15.6878 58.9381
CA 36.8489 -7.8019 77.1349
CA 40.1844 -32.3131 38.362
CA 20.5779 -8.61957 19.4555
CA 50.4945 -29.2915 64.9287
CA 32.429 -15.4909 47.0978
CA 11.7223 -10.0402 54.325
