489

CA 41.4233 -8.85847 46.1422
CA 34.6275 -6.45021 62.9694
CA 39.8845 6.60485 45.129
CA 22.4336 9.66864 54.5874
CA 23.0387 5.08531 47.7872
CA 36.3956 -7.95703 62.9017
CA 38.5964 -21.5092 64.6505
CA 39.1431 -7.33915 67.8368
CA 30.4081 6.59758 53.7539
CA 45.1539 -21.6083 72.9111
CA 19.4235 -17.1423 46.7561
CA 49.6488 -29.4228 53.4598
CA 39.7718 3.01238 60.3528
CA 38.6726 15.8687 53.5674
CA 44.6592 -12.6527 45.0472
CA 36.3446 -28.8847 50.7853
CA 33.732 -19.5172 38.1783
CA 28.6642 -19.4157 33.5094
CA 40.1415 -5.1243 47.9075
CA 49.0924 -11.3518 54.2376
CA 24.7869 5.56793 56.5945
CA 25.2997 -2.37323 26.5122
CA 23.1494 -15.4809 67.7729
CA 43.247 9.95606 46.2312
CA 41.0873 -21.605 76.2459
CA 34.1154 13.7083 50.2777
CA 24.6592 -0.10635 24.5778
CA 32.551 -13.9782 94.9578
CA 33.8863 -6.21438 53.3324
CA 38.7595 -7.12516 36.1129
CA 53.4007 -10.0844 65.2207
CA 36.9472 -0.947496 61.938
CA 30.9222 -3.48313 68.2511
CA 50.3612 -22.3564 47.9907
CA 32.469 -10.4574 64.9421
CA 33.9442 -19.5506 47.2234
CA 19.9007 -3.4023 60.5151
CA 46.9251 -34.9166 51.8837
CA 27.7273 -18.2798 36.721
CA 33.7745 -14.972 56.723
CA 34.0863 -13.7664 50.3939
CA 46.0057 -14.3926 45.5806
CA 29.8246 -25.9322 44.086
CA 11.4549 -20.54 56.5067
CA 39.1416 -30.594 53.592
CA 45.6341 -27.2886 58.6232
CA 28.3349 -14.5852 87.9227
CA 38.7485 -22.7151 59.0603
CA 42.8504 7.59471 42.9349
CA 24.7196 -10.206 44.4194
CA 20.4185 -15.4731 19.8566
CA 30.0912 -8.38271 65.3564
CA 39.314 -1.96941 23.4494
CA 31.2965 13.2644 53.2539
CA 13.1568 -5.72531 53.9366
CA 40.467 -14.4574 28.7973
CA 34.156 5.54131 61.3038
CA 26.0279 -15.636 41.1899
CA 34.4762 -26.8136 58.2558
CA 47.1727 -11.6712 67.2817
CA 19.9014 -26.0383 57.5073
CA 26.9462 -5.87748 46.6739
CA 29.0144 -5.12609 44.3466
CA 43.8288 -0.270109 29.5035
CA 38.188 -0.730629 28.6694
CA 51.6662 -22.1069 72.9397
CA 28.5487 -6.59628 77.5697
CA 23.7055 -3.36799 2.9998
CA 32.3614 -9.55972 30.3853
CA 19.1735 -3.17552 15.8066
CA 45.6177 -6.93893 56.433
CA 30.1745 -8.59879 58.5858
CA 47.5961 -31.3902 57.7707
CA 53.5823 -4.33306 56.9654
CA 46.0418 -5.98236 30.5573
CA 40.7963 1.33849 44.6334
CA 45.0056 -1.03236 45.9959
CA 38.9087 5.57865 39.2366
CA 19.8637 -24.8624 51.8295
CA 25.6779 -15.1426 86.119
CA 51.3097 -13.9382 48.1027
CA 28.5143 -8.77246 72.748
CA 35.545 -14.2651 39.7077
CA 21.2105 -3.01825 21.3822
CA 45.9513 2.25514 31.1196
CA 31.3776 -9.41636 48.2737
CA 7.12206 -10.4594 54.3212
CA 33.6986 -29.5417 41.6231
CA 23.2158 -21.0724 59.8231
CA 48.0141 -2.18672 70.1816
CA 42.1152 -9.72889 59.7801
CA 9.73202 -10.1507 52.8505
CA 32.3408 -9.01984 60.8221
CA 24.3071 -18.6527 63.4173
CA 18.9633 -4.71974 59.4975
CA 26.9062 -10.2752 30.2092
CA 36.117 -15.1384 41.2549
CA 28.0456 14.2602 55.7659
CA 42.288 16.0141 51.4161
CA 55.2265 -15.2052 50.793
CA 34.9556 -3.35903 65.9484
CA 46.3819 -31.4505 71.1493
CA 49.0082 -6.32927 59.8403
CA 29.7525 -9.2936 63.6399
CA 52.1898 -13.9327 64.521
CA 46.4156 -26.4699 41.8635
CA 54.3952 -1.02241 51.5409
CA 36.3904 -13.9239 35.1937
CA 29.3527 -15.6252 89.732
CA 16.3403 -25.2931 61.202
CA 36.5247 -18.4526 87.3102
CA 19.5001 -12.6711 21.3145
CA 23.8531 -30.6539 45.7267
CA 18.0173 4.04723 51.9584
CA 42.5964 -18.7982 25.4495
CA 32.5185 -0.608942 31.0989
CA 20.5796 10.5616 10.9353
CA 30.8559 1.00035 31.315
CA 27.9792 -3.55788 -1.68893
CA 20.7953 -16.7648 61.6832
CA 24.9087 -12.2877 28.0971
CA 56.8699 -19.4387 62.9326
CA 49.9437 -11.3249 70.1543
CA 27.9147 -4.2911 30.4321
CA 22.1162 3.59739 5.44135
CA 43.9014 5.48075 62.0529
CA 37.0044 -10.5703 49.6038
CA 20.1934 4.65699 10.9295
CA 22.977 7.01471 7.45169
CA 57.1039 -27.3154 63.3091
CA 42.0495 -5.46869 77.4307
CA 32.3234 -15.5307 62.6194
CA 40.5718 -15.6335 78.5049
CA 28.4495 -19.555 49.5917
CA 47.4909 -13.6919 68.2112
CA 31.8958 -19.3292 57.2816
CA 23.3286 -6.71118 3.19207
CA 22.3908 -28.0357 59.5272
CA 32.9096 -6.16225 57.295
CA 48.3253 -20.6664 33.7334
CA 23.0928 -7.91887 16.9307
CA 27.2564 4.51203 3.86355
CA 31.2957 1.52028 43.0838
CA 36.5287 -31.9106 39.7208
CA 16.6062 -13.9 18.0645
CA 29.4494 -1.00023 29.2852
CA 25.2222 3.10376 57.5586
CA 38.4784 3.42749 42.8689
CA 57.5909 -31.3268 60.6548
CA 25.1657 -11.3902 52.9732
CA 57.4037 -8.09446 67.0409
CA 46.0167 -3.47197 68.536
CA 37.9939 7.25128 49.7104
CA 27.5599 -7.74874 38.5851
CA 38.6814 -17.684 38.7688
CA 27.1848 4.78298 46.5151
CA 21.2319 -14.4534 55.0288
CA 51.0852 -22.4296 66.3142
CA 16.046 -21.3563 55.7853
CA 43.8189 10.1349 60.3622
CA 33.37 -18.1485 36.2923
CA 17.775 -12.7379 59.5459
CA 29.5261 -14.5918 52.1302
CA 42.4247 -2.16326 56.7827
CA 48.2858 -23.3089 37.844
CA 44.0135 -10.9217 53.8285
CA 35.0173 18.9564 52.6073
CA 36.6744 14.8883 54.3023
CA 48.5104 -29.8985 67.0853
CA 24.011 -25.3266 83.1898
CA 37.1951 -18.3281 63.3394
CA 27.7429 -22.0334 70.624
CA 48.0657 -21.3546 42.9969
CA 50.9556 -11.8028 63.6375
CA 23.4996 -4.65371 53.1832
CA 33.1519 -0.872945 34.3379
CA 53.5277 -31.0617 68.0276
CA 41.2176 10.0307 57.2596
CA 44.5675 -18.8821 35.3364
CA 19.2325 -13.1282 37.5498
CA 50.7171 -35.2446 71.1705
CA 33.1345 -31.4308 78.6865
CA 31.6347 -11.1996 83.1837
CA 39.5168 -22.3311 74.2167
CA 39.6383 5.02775 66.0097
CA 26.0416 -22.4413 91.1719
CA 45.8612 -13.4823 42.0603
CA 24.8587 3.44861 3.64372
CA 20.8905 5.87774 21.7616
CA 36.9254 -34.2048 36.0766
CA 35.1425 7.89834 64.2431
CA 31.9844 -18.4641 94.1307
CA 31.6583 -26.3521 83.8235
CA 30.1834 -14.2335 63.3702
CA 25.3176 -25.3734 60.7172
CA 32.8603 -1.70692 81.4508
CA 33.3965 -21.9397 49.679
CA 20.6224 -3.1892 23.9766
CA 37.1221 -8.60261 29.6473
CA 18.6236 -13.4419 65.6835
CA 26.7682 -10.571 26.6844
CA 41.0396 -14.8422 62.6405
CA 38.9655 4.20008 69.9639
CA 42.2372 -7.85101 38.6051
CA 32.6071 -23.7739 53.347
CA 25.5119 -13.2683 74.1425
CA 42.0263 -21.1561 57.2395
CA 20.7844 -18.1975 67.4975
CA 31.5973 9.40068 48.4588
CA 47.9871 -11.8608 44.8156
CA 45.7589 -14.1215 70.4426
CA 15.7651 -23.5685 52.4871
CA 21.9785 13.101 51.1342
CA 42.1162 -9.50264 78.9234
CA 23.7163 -9.75764 34.8081
CA 50.5742 -11.4426 52.4797
CA 30.7031 2.01484 64.818
CA 39.1524 -12.8895 30.0743
CA 51.7192 -25.7446 64.5369
CA 27.8558 -24.5327 89.988
CA 27.2719 12.8659 51.1077
CA 37.7975 1.33669 31.5593
CA 18.6862 7.29625 49.853
CA 23.5545 -13.0208 30.1727
CA 44.9736 -28.5076 44.0855
CA 35.3208 -28.787 60.7523
CA 43.6762 -2.92208 41.9853
CA 40.5835 -17.1069 65.6776
CA 21.2658 -4.14788 63.2809
CA 34.0163 2.09863 50.665
CA 19.4067 8.77681 16.3166
CA 39.5534 -26.4105 56.8394
CA 40.264 -0.035458 29.7735
CA 36.4127 -27.0481 83.7857
CA 23.102 -1.77418 57.9403
CA 19.6093 10.6229 58.9059
CA 20.2622 -22.5529 52.566
CA 22.6186 -15.9543 44.2407
CA 22.9845 -3.01602 62.5633
CA 23.5541 -16.2347 40.1048
CA 37.5259 -13.1248 29.3239
CA 8.94093 -19.7616 49.6245
CA 36.9317 1.60223 63.9896
CA 33.9428 -1.87695 51.261
CA 36.4782 2.56448 59.6606
CA 25.7925 -4.40738 0.487257
CA 27.7758 -14.3367 90.4515
CA 18.9 -14.2662 54.2574
CA 36.4705 -5.84202 84.0266
CA 21.8131 5.45212 4.37354
CA 24.3316 -6.12238 52.2495
CA 49.7686 -0.90839 54.3359
CA 36.5944 -16.3024 91.5998
CA 48.4567 -12.9548 40.0616
CA 23.6138 -15.4769 87.8178
CA 12.5175 -5.96618 58.3705
CA 21.835 10.291 56.2369
CA 7.01519 -20.7274 51.3934
CA 11.3081 -16.9211 56.9697
CA 41.7026 0.955404 32.6912
CA 44.7052 -4.65626 37.9656
CA 31.1287 -4.89077 83.6045
CA 42.7205 -18.9871 36.5544
CA 41.565 -2.12966 33.3796
CA 18.9768 -2.79565 27.8009
CA 30.6129 -8.94913 80.3581
CA 47.433 -28.2909 47.3841
CA 41.4808 -6.20329 35.6972
CA 28.8164 -22.8669 81.2115
CA 16.1296 -23.4021 56.4006
CA 24.9304 -9.649 38.5544
CA 53.348 -18.1186 63.2917
CA 43.2786 -16.3076 32.9873
CA 51.3233 -27.6466 52.5873
CA 22.2725 -20.3777 66.2416
CA 53.4662 -29.6552 62.9839
CA 34.4851 -16.7723 82.9733
CA 26.006 -4.33329 36.6407
CA 25.6795 2.89033 45.8459
CA 34.9247 -17.0003 37.3417
CA 21.8193 -16.1857 65.9907
CA 15.135 -4.12625 68.467
CA 33.7392 -10.7304 74.5713
CA 27.983 -21.1286 66.9876
CA 36.3291 0.63488 44.8996
CA 33.2714 -32.5116 45.0053
CA 35.5243 9.80206 60.5075
CA 29.976 -20.6685 60.9497
CA 29.6763 -10.2186 53.3395
CA 32.4802 -0.938997 60.3912
CA 44.1139 -14.8758 76.4627
CA 18.1707 -14.0473 21.7158
CA 36.1607 -27.9688 63.1836
CA 45.8732 -29.2572 52.0402
CA 9.58613 -17.1485 53.1527
CA 22.1089 4.67421 26.3549
CA 58.2399 -26.2425 47.3365
CA 36.7665 8.11854 61.2466
CA 53.2939 -7.6966 69.8148
CA 49.3959 -15.2445 54.8493
CA 40.656 -19.1695 73.2516
CA 31.1743 3.34641 46.0647
CA 42.3433 9.46186 38.9554
CA 26.8424 -18.5934 60.2852
CA 37.0982 -11.2216 30.4244
CA 52.2136 -16.4818 63.1449
CA 46.0519 -20.8004 70.795
CA 35.456 -16.0953 39.2883
CA 28.7048 -0.735599 25.4548
CA 34.7389 -16.7595 49.7828
CA 52.185 -19.7729 49.7506
CA 20.5404 5.23493 27.2734
CA 31.483 0.29679 52.5393
CA 36.9879 -31.1707 44.643
CA 59.2774 -27.1921 67.6068
CA 5.4713 -16.8244 47.9529
CA 49.5804 -21.6441 41.3558
CA 30.7817 -2.62981 54.993
CA 16.6118 -28.0405 59.3092
CA 31.729 -22.3664 80.5753
CA 43.5751 -19.729 57.4259
CA 39.1805 -18.4474 63.4198
CA 39.9769 -8.16805 73.881
CA 31.1734 5.19646 57.0738
CA 21.5178 8.23289 52.006
CA 25.4523 -22.9834 61.8633
CA 43.9372 -28.1185 66.1418
CA 11.2761 -10.5428 56.8805
CA 53.262 -14.9802 55.1048
CA 38.6982 -9.78977 31.3173
CA 31.3897 -27.9818 34.5229
CA 32.1454 -18.4295 45.9329
CA 28.8218 6.65804 46.4617
CA 43.9496 -9.78866 47.7239
CA 23.3565 2.13391 52.562
CA 37.2067 -24.9854 39.6153
CA 49.2989 -32.5544 55.7436
CA 29.5201 4.92004 54.9741
CA 35.7543 6.77763 49.1039
CA 39.1254 -6.20671 49.1105
CA 53.0555 -19.9643 55.9212
CA 31.3618 -10.4261 72.4404
CA 20.1951 -5.93907 60.095
CA 29.7392 -30.006 34.4556
CA 43.3653 -6.75012 51.0291
CA 36.4706 12.8408 63.5762
CA 55.8533 -12.2445 49.3638
CA 23.3822 -14.3041 40.091
CA 49.5818 -21.3076 32.6011
CA 12.0187 1.16069 53.286
CA 30.3411 -1.19277 76.9158
CA 43.4562 -4.21022 40.3786
CA 11.6469 -19.3056 51.6618
CA 51.6378 -15.6642 65.3445
CA 42.5492 4.26391 64.8731
CA 36.8881 10.9227 54.9077
CA 15.1709 -3.2646 64.8982
CA 48.2094 -20.0537 65.6598
CA 25.4257 -6.96022 50.5045
CA 36.6912 -33.0729 45.1105
CA 44.2362 4.58258 42.6018
CA 32.4044 -30.175 81.7283
CA 39.6304 -5.15455 37.7748
CA 51.3374 -32.8187 70.7517
CA 25.6342 -28.875 48.0434
CA 34.0319 -11.2811 65.6927
CA 21.8637 -18.4493 42.4716
CA 23.987 -12.5598 62.664
CA 29.1887 -25.5331 73.1847
CA 29.7286 -23.8802 80
CA 30.823 -14.1773 81.0578
CA 11.471 -4.99575 64.1931
CA 31.5175 -25.3414 39.9803
CA 38.3529 -22.1813 76.1449
CA 49.3915 -20.6375 72.199
CA 44.1088 -16.8397 26.5475
CA 37.0945 -27.3243 38.1133
CA 35.2502 -17.0895 89.2835
CA 27.1315 -13.4447 41.4709
CA 28.6665 -3.57879 54.0584
CA 28.3589 -13.4296 65.3576
CA 37.5565 2.27311 41.6846
CA 31.7138 -27.5015 43.8695
CA 50.2765 -14.9403 60.2178
CA 36.0517 -20.5985 88.1687
CA 49.6122 -10.7572 44.7104
CA 42.6675 2.16131 44.1324
CA 51.7523 -23.711 51.2212
CA 42.4224 8.13214 71.197
CA 27.5677 1.45098 61.2273
CA 31.4283 -11.0421 61.2393
CA 53.6665 -2.48454 56.1384
CA 24.6262 -17.2209 32.8352
CA 25.9126 9.72534 55.7918
CA 17.631 -18.9669 57.8691
CA 32.7862 -28.6924 38.8728
CA 21.2252 6.54743 8.29843
CA 52.1646 -9.1767 51.2364
CA 29.8828 -28.5702 35.7546
CA 26.4975 -25.6607 43.0541
CA 24.2115 -0.894411 3.52605
CA 39.8916 -4.06763 39.283
CA 30.437 -29.3072 46.4636
CA 27.9403 -9.74956 44.1902
CA 36.105 -14.7558 50.0584
CA 20.9223 -11.621 56.2104
CA 9.77851 -5.15427 53.4679
CA 52.3267 -17.6567 58.2377
CA 59.7083 -28.235 48.987
CA 39.536 -14.3085 77.7379
CA 32.5081 0.495496 49.9344
CA 17.8094 6.87546 18.8346
CA 20.1099 -17.439 17.5571
CA 23.5951 -11.3445 66.0143
CA 52.7992 -13.5593 42.0026
CA 45.6474 -2.42805 32.8588
CA 24.8814 -1.63222 54.0325
CA 21.2888 -9.37259 24.454
CA 12.2849 -6.50367 49.5049
CA 29.4925 -12.9164 29.9336
CA 32.8198 -11.9204 60.0372
CA 34.9782 12.9331 58.5433
CA 33.3961 -19.9863 84.6862
CA 20.736 -6.19915 19.2606
CA 17.4112 -4.59996 61.1311
CA 27.3469 -17.3645 92.4694
CA 55.019 -23.0874 62.3478
CA 39.8869 -18.1252 61.7534
CA 48.2189 -22.966 66.7363
CA 45.0006 -27.5941 56.0217
CA 14.4268 -3.55568 49.6326
CA 29.3464 -8.64284 39.3979
CA 35.0575 -28.3792 38.542
CA 46.4386 -11.9723 70.4841
CA 32.0055 6.75269 55.8663
CA 33.7183 -9.48673 67.5414
CA 29.5576 -2.76394 48.057
CA 32.5875 -31.5796 42.4426
CA 37.7094 -22.5027 39.6873
CA 45.2454 -16.4877 36.4273
CA 32.6186 -17.695 47.8356
CA 53.402 -27.2174 47.818
CA 20.2222 5.55313 55.6839
CA 18.4374 -9.02102 18.6415
CA 40.9072 -16.9726 76.0129
CA 30.1653 -1.39213 34.7744
CA 26.9463 -22.0057 40.549
CA 10.3685 -3.80735 54.9242
CA 39.6737 -21.593 62.3995
CA 52.3921 -17.659 51.3247
CA 51.5211 -6.79788 61.9569
CA 41.1447 -17.5127 74.0472
CA 44.9042 -24.8712 59.4568
CA 36.7703 3.69593 53.5204
CA 31.4626 -17.8916 82.7772
CA 35.3139 -26.791 79.9366
CA 38.1602 -18.136 44.0716
CA 54.666 -7.62973 68.3479
CA 33.5128 -8.46355 48.1416
CA 27.0155 -14.7781 30.9622
CA 52.0786 -28.6749 68.8392
CA 54.3737 -18.4789 49.1918
CA 21.4802 -4.28898 22.6846
CA 47.7515 -20.8565 39.2341
CA 49.3061 -12.9944 38.4601
CA 48.9102 -30.695 50.7994
CA 31.8013 -14.6683 79.5946
CA 30.281 -14.8441 60.5825
CA 26.6475 0.439574 30.1476
CA 16.1974 -5.59715 64.8815
CA 36.6278 -6.54516 26.6352
CA 13.215 -16.6715 54.7041
CA 28.4606 -10.5971 57.7335
CA 47.5338 -2.42374 56.6194
CA 49.4037 -23.0957 46.5157
CA 45.8144 -14.3323 35.5893
CA 51.8102 -19.1287 48.1028
CA 22.9336 -19.9961 42.9495
CA 33.0968 -6.70013 78.2978
CA 32.8074 -17.3789 51.7485
CA 29.4662 -16.5915 80.6929
CA 48.7272 -7.53601 65.7331
CA 26.7634 -16.489 90.2972
CA 47.2685 -11.9061 57.5987
CA 13.1073 -15.4961 59.7154
CA 20.5779 -8.61957 19.4555
CA 60.0293 -25.1793 62.6876
CA 26.2095 -20.422 89.1256
CA 30.5982 16.2955 50.474
