489

CA -17.193 31.4255 42.2479
CA 6.16033 1.90019 44.4892
CA 3.74345 3.75296 70.9548
CA -2.46034 4.16083 48.4254
CA 1.81642 29.231 36.2629
CA 11.1791 16.6661 24.8133
CA 39.7633 14.6857 57.0866
CA -2.62458 -14.184 52.1217
CA 16.7135 3.36238 17.67
CA -1.16126 18.1458 35.9493
CA -3.05313 -31.5404 31.8096
CA -2.5133 -16.3057 52.1232
CA 11.7895 4.48125 37.3358
CA -16.1978 -25.6836 38.0717
CA -1.82905 2.2642 37.1351
CA -0.0931657 13.9176 39.8358
CA 16.0143 14.0206 18.05
CA -18.1441 -15.2722 41.1465
CA -1.17546 6.0028 58.2815
CA -0.0828968 22.0642 22.7361
CA 0.251384 16.6535 30.16
CA 9.27684 -8.10631 54.8889
CA 15.5886 2.38089 35.4983
CA 6.66261 6.7704 50.7021
CA 11.0436 15.8463 10.5515
CA 11.8677 -1.04382 35.8369
CA 9.81511 -2.01639 36.0196
CA 19.0064 0.469321 75.7299
CA -21.8161 25.4535 39.9472
CA 16.4085 -25.9446 68.1204
CA 6.76107 -5.88803 50.6422
CA 11.9125 0.689583 41.0035
CA 23.8827 -11.4578 69.96
CA 0.93027 -26.0208 32.0688
CA 7.88078 12.2411 34.6526
CA -23.703 -9.713 20.4965
CA 23.2417 -13.7014 54.2854
CA 25.2355 -4.64564 68.9253
CA 1.24676 4.00829 52.799
CA 8.7151 -1.14451 45.5612
CA -1.45975 -9.67703 44.9594
CA 11.7281 -0.219671 70.0904
CA -1.72362 -15.8306 38.9444
CA 18.4245 -3.86273 72.1688
CA -32.3321 12.5277 55.85
CA -6.00036 -21.7852 36.8988
CA 16.8478 -4.44719 60.733
CA -6.71775 19.9002 38.8972
CA 25.3936 0.450573 67.3499
CA 16.021 1.12237 67.8498
CA 8.94151 -21.5007 59.5643
CA 23.2202 -6.31828 41.5779
CA 14.2999 4.86064 35.7407
CA 7.25716 -19.5002 59.4718
CA 0.350507 18.8713 37.6758
CA 12.007 -14.1978 66.8011
CA 18.01 -10.73 46.8857
CA -2.39952 8.45537 55.6285
CA -5.19302 -10.3926 35.6223
CA -4.25923 17.1215 35.4896
CA 13.3797 -15.8567 51.2424
CA 30.4931 0.916163 36.6225
CA 3.73032 17.076 34.1925
CA 14.7035 16.0971 28.32
CA 25.8723 -6.53202 55.2902
CA 16.7061 -29.3949 73.9695
CA 8.65289 8.54922 37.4859
CA 29.8061 5.44614 61.4439
CA 10.0595 14.2882 49.102
CA 17.2091 0.740059 27.9616
CA 2.80198 15.8715 53.9796
CA 15.0194 6.59523 57.1006
CA 10.8531 9.5656 44.8568
CA 14.2909 13.1865 17.7619
CA -6.57795 -14.1565 66.7112
CA 11.0588 6.32026 51.7106
CA -5.48078 34.4236 67.9512
CA 28.6403 0.512566 68.3135
CA 2.05974 15.1441 37.6927
CA -7.35202 35.3425 67.0389
CA -41.7543 15.0679 60.0437
CA -2.4771 -12.1849 50.108
CA 23.2059 -3.15623 64.7041
CA 41.0527 -15.3215 55.7368
CA 34.4398 -10.1281 64.7889
CA 7.22466 17.1915 30.796
CA 2.92301 39.5875 53.9495
CA -22.9061 -21.5274 34.2323
CA 18.8312 5.06892 67.2134
CA -39.0035 9.76244 52.2241
CA 1.64656 -9.09412 46.0352
CA 35.4181 -11.0121 51.5747
CA -4.47475 8.78545 58.3996
CA 12.893 15.753 12.8399
CA 13.155 -1.06635 41.996
CA 18.9086 3.50404 57.7287
CA -9.08503 30.1772 52.9827
CA 29.1793 6.04483 68.9634
CA 15.5261 10.8693 58.62
CA 9.61041 18.7253 32.5648
CA -6.90739 30.8409 57.0454
CA 14.7896 -1.71842 22.1811
CA -3.8504 0.443737 42.7497
CA 8.09599 -13.7512 76.1186
CA 22.213 1.88088 68.7312
CA 14.9217 9.74618 65.4462
CA 40.9868 17.1854 59.0923
CA 24.3122 -3.10803 41.5074
CA 2.75038 -14.9534 45.3484
CA -4.53343 -7.8377 36.9269
CA 19.2458 23.4824 41.8708
CA 9.28521 2.10945 51.5199
CA -6.22253 -15.3958 36.8479
CA 23.7042 6.41591 41.6305
CA 11.0281 1.31038 73.9272
CA 12.6986 8.19957 51.2444
CA -24.2803 25.8924 39.907
CA 24.5939 -7.45864 65.0575
CA 9.49831 14.925 30.8975
CA -19.6394 -28.1982 43.7932
CA -0.335851 -16.2246 44.0899
CA -7.33567 25.6323 52.5575
CA 15.6461 12.8266 38.9451
CA 12.3538 -6.97769 64.9714
CA 18.8378 0.363982 70.7005
CA 7.59149 -9.51213 46.7897
CA 29.6982 -16.3875 55.7729
CA 45.0546 -9.88363 59.8757
CA 5.31839 18.6033 38.2767
CA -28.6211 26.3838 36.6854
CA 9.58892 9.11439 40.682
CA 7.40562 -9.56677 66.2246
CA 13.0094 -9.72813 66.8211
CA -32.9082 18.9478 52.9489
CA 11.5568 21.3175 23.2731
CA 2.6188 20.2019 48.4471
CA 6.57809 -16.3025 62.239
CA -39.719 14.983 58.2363
CA 5.62768 9.26377 44.9529
CA 9.06778 -24.2966 57.6597
CA -8.19126 -20.3309 39.0942
CA -7.245 27.5231 50.5816
CA -2.81178 11.646 52.7741
CA 8.67674 16.947 28.0806
CA 6.23447 17.4245 29.2834
CA -12.3803 -23.6354 36.1325
CA 3.46859 20.7535 24.89
CA 9.64026 12.6772 45.14
CA -19.5267 -15.05 42.5994
CA 22.854 -3.16904 73.5505
CA 15.0676 -12.1502 50.9748
CA -2.42695 -9.72328 52.3132
CA -23.7907 30.4065 38.2031
CA 25.7195 2.77902 39.4163
CA 5.54672 -0.598433 48.4062
CA 9.7871 8.04534 44.4771
CA -15.1894 27.2937 36.3934
CA -5.10493 -17.2746 31.5615
CA -5.55957 -2.75811 39.1781
CA 17.2311 -9.4598 57.5927
CA 26.2002 -4.27072 40.1349
CA 15.891 -18.6344 51.1914
CA -0.0963591 -12.3202 45.0929
CA -16.5397 -26.8475 29.1179
CA 8.90722 8.56855 42.9173
CA -1.07364 6.83659 43.5428
CA 20.4441 -1.47887 63.6916
CA -1.62797 18.5715 44.4559
CA -1.9903 19.3844 40.1279
CA 14.2725 11.7017 37.4469
CA -16.0411 -8.79234 27.3915
CA 1.27349 14.441 45.2813
CA 15.041 -9.21589 48.2319
CA 4.99668 4.78253 42.3227
CA 21.8713 -1.46206 74.5505
CA 19.4808 -1.04854 71.9182
CA 31.7782 -7.57439 49.2576
CA -0.976043 -20.4149 38.378
CA -31.579 -3.16542 63.2831
CA 6.45478 21.4167 22.6206
CA 8.46217 1.16631 34.5123
CA 18.7856 -0.360453 64.8412
CA 30.0108 -13.2926 54.8996
CA -19.7464 16.2046 48.8814
CA 12.5198 -4.06922 68.7996
CA -4.7963 20.3103 40.899
CA 10.3336 25.1391 38.9094
CA 13.0779 15.7872 16.2137
CA 19.9386 -10.0927 58.6964
CA 28.0992 -6.1233 65.56
CA -4.3672 6.66647 41.6041
CA 14.1263 16.4762 41.0405
CA 18.4004 1.73476 73.4887
CA 10.7381 -1.87926 67.573
CA 8.7711 14.8497 29.0662
CA 5.13791 1.96668 39.8519
CA 14.2117 -2.36721 68.5854
CA -3.43014 12.32 90.3318
CA 9.2928 19.9724 35.6504
CA 11.888 -10.5116 40.1611
CA -4.27806 -15.4725 31.8952
CA 14.0442 -0.518746 37.9578
CA 8.82579 22.3194 33.3522
CA -14.999 -9.1109 24.3237
CA -19.4227 13.4431 51.908
CA 0.0387323 18.9633 20.4276
CA -2.86557 3.54307 45.1548
CA -17.2446 30.7984 38.5513
CA 19.8267 -30.2939 71.7402
CA 39.936 -11.4738 62.4335
CA -21.2522 27.4517 35.6653
CA 9.74637 13.9772 22.2187
CA 20.0096 -5.51277 70.0639
CA 17.8904 -2.20229 68.5685
CA 0.996838 3.14604 55.5285
CA -26.4509 -15.727 40.4128
CA 8.72991 -9.0065 69.7127
CA 24.2018 -12.3852 56.2043
CA 13.1822 -20.9508 49.6802
CA 22.5399 -11.8343 71.1649
CA 3.42038 1.10253 34.7422
CA -37.1278 12.3679 52.0424
CA -2.18914 14.422 91.8465
CA 13.5303 -21.0281 70.0817
CA -12.4138 -28.4457 26.902
CA 31.4493 4.0948 37.4948
CA 11.2552 17.2717 43.8196
CA -2.89397 -18.6815 38.7525
CA 16.2458 -15.6004 53.1687
CA 1.99027 7.2601 52.6355
CA -12.5596 -7.05887 25.6902
CA -8.30586 -16.5823 36.541
CA -22.0924 -9.60276 23.6209
CA 5.67523 9.45291 42.3341
CA 16.4466 -11.8086 59.8515
CA 22.0276 -29.0557 72.3868
CA 26.7743 -4.5254 34.6612
CA 23.8814 -7.37681 33.6412
CA 11.2079 -5.58707 54.0183
CA 25.4409 -2.87644 68.3475
CA 17.5076 -12.2156 54.4605
CA 16.9088 -16.9522 56.9903
CA 12.9819 10.1823 55.1625
CA 4.75729 38.8241 52.0807
CA 32.9356 -9.56917 52.6197
CA -24.5444 32.8878 39.7861
CA -26.4861 22.8095 37.3168
CA 10.9669 -23.3865 65.2502
CA -29.8469 18.4683 53.2023
CA 23.8081 -4.0455 67.3264
CA -2.19611 -6.55747 46.8978
CA 10.1976 -12.4111 57.0875
CA -6.32359 2.87995 45.7975
CA -3.449 2.16056 53.6939
CA 18.0948 10.2501 63.9428
CA 12.8802 18.2256 16.3635
CA 20.0227 -8.69524 53.4253
CA -8.2287 15.0221 95.6461
CA -32.2504 9.14 56.3425
CA -2.10924 7.14407 41.9686
CA -21.9959 17.3665 45.5174
CA 20.1652 2.52302 46.9455
CA -17.1968 33.498 38.8049
CA 14.4414 -0.2766 72.3875
CA 14.0257 12.6527 27.0477
CA -30.2419 12.347 54.5968
CA 6.12355 14.7205 27.9103
CA -39.6005 15.6943 62.1242
CA -0.152141 -3.01674 45.314
CA 1.61972 4.64822 67.7123
CA 10.8495 -6.22444 55.9677
CA 1.88167 18.4605 18.8902
CA 12.9857 -6.37046 67.1122
CA 12.0826 -9.96876 75.3712
CA 24.4527 -1.15772 63.5788
CA 0.639618 6.15821 62.6119
CA 13.3392 8.57212 27.9243
CA 12.9459 -3.1191 38.7176
CA 2.28911 -10.423 48.9896
CA -18.6291 -8.21844 25.3785
CA 16.078 2.88187 58.9475
CA 17.7984 -14.5289 50.5728
CA 11.1005 2.81579 34.3184
CA 9.05874 -2.44336 66.5098
CA 19.6719 -7.07686 37.5822
CA -5.12526 0.954069 35.3312
CA 27.2633 -3.22395 69.6476
CA -33.0256 13.1019 52.599
CA 32.5809 -13.0538 66.8158
CA 11.8861 15.4914 33.582
CA 1.23425 10.5877 45.9342
CA 0.330333 -17.4927 49.3146
CA 12.102 -14.9235 73.0362
CA 5.916 16.1175 38.3376
CA 3.69792 -18.3939 35.506
CA 13.939 -5.72361 55.3211
CA 18.5908 -26.6007 71.6104
CA 23.1301 -2.91451 48.6746
CA 2.10095 -16.5207 56.3158
CA 11.1379 -1.98256 75.505
CA -17.4453 -27.9585 27.5682
CA 7.14085 25.9354 35.0774
CA 6.29969 20.7767 35.7229
CA -0.724241 -15.3163 52.998
CA 6.56713 3.27694 50.2213
CA 15.9731 -22.5767 72.3623
CA 23.455 -9.95706 35.3616
CA 26.3031 -7.881 47.0729
CA 21.9685 -7.02624 62.6987
CA 5.52268 5.02376 45.2886
CA 16.1784 2.10924 57.167
CA -18.664 30.3384 37.1932
CA 33.5914 -7.10458 49.4802
CA 20.2428 2.55087 71.9555
CA -8.39396 10.657 55.6536
CA 10.6565 9.62834 50.8177
CA 12.2124 12.9136 28.6414
CA -28.2022 16.0191 55.2856
CA -7.04275 -12.8834 68.7981
CA 18.109 3.57671 73.4502
CA 17.5063 -21.0077 55.12
CA -9.30459 9.6079 53.6175
CA 7.15641 -0.680253 39.5477
CA 1.408 -6.85861 42.6245
CA 17.286 8.57542 67.9134
CA 26.1599 7.78711 40.2949
CA -1.59878 17.7048 39.4292
CA 7.76943 33.4097 55.3279
CA -0.705487 11.0431 42.2262
CA -36.3923 7.57849 54.6036
CA 24.2904 -7.36359 61.7292
CA 25.2027 -11.9308 35.7326
CA 5.56236 -15.0679 54.2101
CA 16.3696 -12.9557 49.5093
CA 16.5816 0.521213 59.2295
CA -13.9284 29.0716 44.4583
CA 22.1842 -3.40165 46.7238
CA 15.1353 -9.53101 52.1279
CA 7.65145 -6.01805 53.4547
CA -34.5468 15.0822 51.7325
CA 11.9126 3.16423 66.1076
CA -4.29584 26.5819 44.7809
CA -1.33598 3.68123 35.7948
CA 17.3866 4.72835 19.5516
CA -0.625573 -33.1546 33.4456
CA 17.5915 -13.7954 61.4921
CA 12.5149 21.5742 36.179
CA 12.5231 -0.380555 59.4724
CA 16.1569 19.03 16.5158
CA 14.5776 4.92315 65.3029
CA -39.5162 11.5296 51.5107
CA -4.45896 9.20385 40.5354
CA 27.7785 -10.5808 52.9707
CA 14.0588 -2.6926 56.9554
CA 26.8587 -0.301619 63.9214
CA -3.91619 18.1464 44.3409
CA 4.02447 36.1811 55.4989
CA -0.625423 4.03247 54.0257
CA -0.717179 -4.69774 48.5223
CA 10.9331 20.9626 14.4172
CA -7.31872 -1.05846 42.7622
CA -8.94655 31.4611 70.821
CA 21.089 10.4939 56.6923
CA -1.0359 4.32797 37.888
CA 7.41418 1.2784 63.9936
CA 15.5819 10.1434 17.6278
CA -2.1527 23.0072 45.2299
CA 5.6982 7.97588 55.3516
CA 17.6281 -31.8523 69.8597
CA 10.829 -2.58323 41.1871
CA 1.75879 12.7849 51.2482
CA 21.3017 -4.40911 48.8403
CA -29.7416 9.90469 53.2104
CA 0.966053 15.9789 86.2547
CA 20.9231 -3.21057 73.4949
CA -17.3818 -17.4394 36.0595
CA 3.7144 -5.89154 49.4154
CA 1.64135 9.70725 41.5504
CA 15.0738 -3.17492 23.8382
CA 6.60423 -8.95072 67.895
CA 14.0398 -0.859242 24.6392
CA 12.0485 -15.4187 63.3356
CA -31.8256 16.9937 51.6703
CA 7.4268 12.067 38.4147
CA 15.0446 -16.3361 50.5156
CA 6.62377 14.9969 24.6736
CA 18.4738 -13.4873 57.0366
CA 22.948 19.6175 36.5126
CA -2.69076 16.684 50.9401
CA 18.7949 -2.41777 43.9577
CA 6.84783 20.7097 24.6544
CA 15.4866 -26.5232 70.7125
CA -8.8934 4.51318 36.6527
CA 15.2301 1.41725 69.4774
CA -17.6759 -26.1427 41.7532
CA 18.9676 -2.94014 35.5214
CA 13.6196 10.7761 58.2399
CA -19.8588 -6.40815 26.2595
CA 6.05983 0.100496 50.9934
CA 28.5466 0.186265 28.3237
CA -19.8812 0.886994 39.2563
CA 12.2468 4.56725 40.5333
CA 2.08796 11.442 56.0285
CA 15.274 -5.60497 59.7604
CA 1.29021 -11.314 44.517
CA 8.77642 -0.179502 55.3675
CA -23.4039 13.8933 46.5478
CA 18.9051 -20.036 53.7208
CA 12.9798 -4.36526 74.3623
CA 13.4457 1.57966 66.4644
CA 17.6482 3.68348 66.4902
CA 25.5739 -6.14117 45.6043
CA 15.9209 -1.42547 36.4258
CA -9.12399 27.6402 54.8582
CA 1.96019 12.5786 43.2484
CA 21.3616 1.07368 44.2811
CA -4.17482 15.2153 38.3997
CA 14.643 1.20693 40.2339
CA 0.649414 7.70625 43.6114
CA 12.0772 -3.33012 24.0669
CA 1.80216 21.9579 17.5235
CA 2.65159 13.8643 35.9345
CA 16.9616 -27.3065 59.0239
CA 5.80166 -0.548908 42.2794
CA 6.5359 12.9718 36.3113
CA 18.9437 -12.5265 53.112
CA 0.483061 -11.3551 48.9913
CA -3.26838 3.21703 36.5817
CA -8.43905 30.9365 50.5518
CA 27.6412 1.13777 35.1135
CA -19.3817 31.061 38.9571
CA 29.0134 -2.67674 66.7876
CA 25.5579 -1.9364 65.4438
CA 26.4026 2.17176 62.8741
CA 23.8943 -25.0555 74.3119
CA 20.9241 5.25757 56.7995
CA 3.54878 16.8039 41.0998
CA 20.2815 0.171811 66.417
CA -0.735211 11.9693 54.1901
CA -7.62474 -10.9404 71.9305
CA 29.645 3.47063 66.337
CA 18.5259 1.91634 56.4222
CA 2.55137 18.0733 31.1546
CA -0.173086 18.6626 49.5581
CA 5.63132 -23.0029 56.9625
CA 31.2573 6.62983 65.0188
CA -2.6141 -20.8641 73.8781
CA 8.02128 -8.87505 76.7738
CA -6.24776 10.428 55.0681
CA 3.28267 -18.0354 61.2673
CA 39.1655 16.9186 59.1029
CA 5.77772 -14.2711 62.3139
CA -19.158 14.5175 47.7855
CA 10.353 -3.26855 39.0646
CA 13.6173 -20.7677 63.8952
CA -7.51046 2.89112 38.0169
CA 21.5586 20.3493 38.9704
CA 29.3544 9.65214 38.1796
CA 2.06892 -19.3465 55.6655
CA 26.3908 6.35234 38.982
CA 2.69044 -21.4268 35.5428
CA 18.9946 -11.2355 54.8781
CA 10.2937 27.4954 40.8097
CA 3.50283 -15.8859 47.1434
CA 8.53104 17.2438 38.1391
CA -21.0354 31.5219 39.8089
CA 13.7686 19.1008 11.7783
CA 26.0112 -10.0709 47.1745
CA -4.39905 12.1627 51.1058
CA 10.7688 -9.29351 71.6391
CA 7.27449 -1.14819 65.3625
CA 24.9563 -6.88492 50.7111
CA -3.56373 -4.63239 46.5917
CA -12.5302 -18.4744 37.9577
CA 2.59503 2.62332 53.8825
CA 4.7845 13.1357 22.1511
CA 41.3405 -13.6265 57.9743
CA -1.99542 6.67807 56.7586
CA -24.2861 -9.54452 25.8473
CA 21.8374 -2.77 71.7936
CA 4.42466 17.7925 43.1192
CA 26.0203 -12.9167 56.3259
CA 7.28346 -26.6163 36.7698
CA 4.06619 7.75842 53.7153
CA -0.32232 3.62789 59.2424
CA -13.9991 29.942 42.1483
CA -2.6943 2.33663 33.8177
CA 9.97027 -18.7511 71.3678
CA 22.8981 -8.25102 53.1298
