489

CA 28.73 -2.82989 4.77895
CA 22.7974 1.5874 55.2322
CA 39.8845 6.60485 45.129
CA 41.5478 -3.92134 40.2339
CA 36.7583 14.1488 51.155
CA 6.49252 -22.0377 47.4487
CA 24.3341 -18.2034 66.4545
CA 28.2633 -29.6989 45.0063
CA 43.8659 -20.2877 71.916
CA 48.3573 -11.9835 52.3057
CA 59.0426 -4.26932 61.3663
CA 49.1224 -21.7414 72.5446
CA 50.0897 -21.558 57.326
CA 34.4723 -38.9488 49.9968
CA 38.1008 -4.78627 55.4014
CA 30.092 -7.68312 23.3117
CA 49.1977 -25.4056 41.4329
CA 18.4345 4.62042 58.0811
CA 35.8459 13.6253 55.1278
CA 27.1439 -5.36254 73.4625
CA 33.0102 -33.6514 54.6178
CA 48.8334 -36.5474 47.639
CA 36.9008 -36.3554 49.1196
CA 23.8887 -6.773 29.6664
CA 19.4984 -21.8277 41.6645
CA 36.9537 -4.27738 70.2168
CA 50.3327 -5.70965 71.2514
CA 42.6126 -21.8889 71.5234
CA 21.1067 -17.3926 67.2807
CA 46.6483 -27.3075 46.0811
CA 15.0469 2.80526 53.4955
CA 51.8912 -25.2053 71.678
CA 35.7512 -17.2699 55.0842
CA 33.0014 -24.2133 90.6475
CA 10.3491 -16.7742 61.8487
CA 31.2421 -23.0722 85.9961
CA 38.0073 11.2896 40.4603
CA 36.843 7.24595 55.7471
CA 34.1816 -3.29899 24.0801
CA 30.5176 -33.9502 48.5326
CA 52.2183 -6.30258 47.1194
CA 35.2051 -7.67282 24.646
CA 35.4109 -0.155806 40.3519
CA 40.1233 -6.90647 35.3175
CA 39.0735 -0.639021 41.0089
CA 48.5024 -4.67257 55.562
CA 21.4121 3.53616 21.6993
CA 31.0053 -10.3416 61.1144
CA 55.7481 -20.0256 53.1925
CA 37.8886 -18.2255 59.6614
CA 48.397 -23.6002 40.5032
CA 42.4164 1.03684 51.1138
CA 35.655 -1.76685 33.7628
CA 37.4328 -14.9216 84.6264
CA 8.16202 -24.981 51.5787
CA 36.083 -17.3167 59.5593
CA 56.8382 -3.95897 65.8178
CA 32.6486 -26.0301 49.4527
CA 37.2606 2.65804 42.8666
CA 13.8177 -13.0276 63.5479
CA 54.2855 -11.8614 58.1348
CA 34.2105 -20.6525 35.7523
CA 47.9817 -6.63976 56.1035
CA 26.9571 -4.3417 3.10989
CA 50.4522 -32.8804 69.5163
CA 29.0635 -6.85736 49.5133
CA 22.553 0.361008 4.29198
CA 23.7055 -3.36799 2.9998
CA 29.0822 -18.2351 43.4829
CA 24.8303 -2.39535 1.26135
CA 24.0571 13.4609 39.0554
CA 19.3504 -19.7031 70.1453
CA 30.935 -29.0273 47.1897
CA 51.6337 -6.20345 60.2784
CA 47.6714 -12.3494 62.3853
CA 31.9705 10.7746 56.3624
CA 12.85 -24.0946 55.5004
CA 51.7968 -30.7086 68.649
CA 29.2439 -10.5931 56.6755
CA 37.1504 -5.68116 62.0676
CA 41.322 -13.2192 40.3342
CA 33.7503 -2.47815 66.2497
CA 31.8001 -20.3479 94.3307
CA 23.0953 -16.6817 43.0187
CA 27.4687 1.26513 53.3087
CA 31.3776 -9.41636 48.2737
CA 26.4698 -24.8229 48.8107
CA 36.0277 -31.6128 33.8802
CA 20.2283 -14.346 42.1853
CA 47.6432 -27.7191 40.028
CA 48.2827 -18.9572 61.1997
CA 33.5476 -5.45724 58.6376
CA 39.1091 -11.2051 74.7355
CA 37.8098 -5.4812 79.9947
CA 42.253 8.60734 54.1299
CA 42.3362 -13.8112 34.0611
CA 8.28915 -13.0881 63.3058
CA 39.5295 0.984451 43.3195
CA 31.9598 -2.0988 35.4843
CA 50.5404 -6.99149 64.2405
CA 26.8626 -5.71714 27.0988
CA 22.7987 -15.1164 48.481
CA 35.6648 -10.7226 74.0811
CA 29.0762 3.22668 53.5359
CA 53.0354 -10.5696 57.7485
CA 30.0233 -30.5557 50.2708
CA 16.1209 10.6321 17.9391
CA 38.5089 -5.83543 53.3952
CA 39.5412 -7.66782 52.4267
CA 10.8032 -12.1502 53.6017
CA 32.5283 -22.086 91.8096
CA 22.1166 4.84732 49.7866
CA 28.5206 -23.8 66.1549
CA 22.8478 -18.2642 80.5738
CA 27.8049 3.77548 41.8618
CA 40.167 -0.982734 64.8334
CA 20.5796 10.5616 10.9353
CA 58.836 -3.95299 57.3991
CA 27.9792 -3.55788 -1.68893
CA 38.8701 -16.4739 89.5289
CA 42.8045 -4.52761 52.1632
CA 27.943 -1.21481 39.0248
CA 38.9304 -0.887455 50.8821
CA 27.9147 -4.2911 30.4321
CA 27.3353 -4.51248 58.211
CA 17.3682 -3.92636 16.5432
CA 39.0589 -10.0209 65.6562
CA 33.6712 -3.85103 57.4866
CA 17.6246 -16.808 60.5725
CA 53.8796 -26.8828 46.0946
CA 40.8261 14.1617 39.0159
CA 20.2181 5.47226 60.1128
CA 40.1386 -35.6962 44.0538
CA 45.5995 0.693367 45.4099
CA 36.372 -12.0798 52.2057
CA 37.3777 -7.12566 49.2976
CA 38.2876 2.00531 37.7344
CA 32.7955 -14.686 37.1807
CA 27.7238 -10.7539 35.1857
CA 28.275 -6.96444 44.9243
CA 23.0928 -7.91887 16.9307
CA 25.1658 -20.539 86.7011
CA 39.071 -23.0511 80.4539
CA 37.7417 11.4892 60.5542
CA 16.6062 -13.9 18.0645
CA 54.7715 -12.2213 53.8791
CA 25.625 -0.781617 36.7034
CA 17.9048 8.6098 59.1695
CA 38.0964 -14.7721 79.8466
CA 24.7598 -12.2083 31.7832
CA 26.6793 -29.4502 40.7446
CA 30.7091 3.54269 55.5723
CA 31.0969 -8.01375 42.4802
CA 24.1369 0.950047 42.4909
CA 27.6581 -15.3439 32.3864
CA 36.0831 -38.5617 48.3401
CA 28.8503 -20.3741 90.55
CA 39.6675 -14.5775 49.826
CA 26.3045 -12.8546 26.5325
CA 39.7839 -34.024 48.1849
CA 30.7553 -9.42393 21.7234
CA 50.787 -17.3052 52.7145
CA 34.0086 -17.2841 88.5797
CA 52.9776 -7.95183 51.3859
CA 5.16489 -8.66723 64.4452
CA 31.9195 -18.1549 52.9973
CA 25.1907 3.25233 53.3647
CA 23.0897 -3.65396 44.2734
CA 26.6783 -0.782048 34.6489
CA 34.2697 -21.2368 93.9561
CA 48.051 -9.87202 45.0592
CA 27.1842 4.51437 63.7295
CA 24.221 -21.2299 59.7817
CA 46.5323 -20.8563 70.1318
CA 47.0009 -9.44606 47.0656
CA 55.4165 -26.7526 65.0397
CA 39.8301 3.3586 54.3055
CA 31.2092 -21.1781 86.5721
CA 39.9111 -18.8219 77.1648
CA 55.997 -21.7805 64.3339
CA 32.6988 -2.02647 60.3831
CA 52.0628 -9.97709 56.1999
CA 23.1502 -8.57344 64.1102
CA 20.0351 -18.6438 83.1131
CA 51.9052 -30.8614 48.3436
CA 17.922 -18.6119 59.8747
CA 57.3776 -16.5823 55.7315
CA 24.8587 3.44861 3.64372
CA 27.1861 -7.04836 20.5309
CA 46.509 -14.7003 34.0498
CA 25.5621 -9.87671 41.8352
CA 36.3326 -27.8753 36.7332
CA 26.5971 -8.6777 38.5273
CA 18.3575 -17.1836 45.0584
CA 33.128 -11.8539 33.2627
CA 33.9347 -9.92628 25.6041
CA 38.4522 -15.7234 64.8872
CA 32.3943 -3.99368 24.446
CA 47.7801 -2.46457 51.0756
CA 40.8754 -23.4607 57.9856
CA 15.4181 -12.7134 61.2711
CA 49.2169 -32.8876 64.8669
CA 17.3862 -16.3073 65.4945
CA 36.483 -24.9772 43.6509
CA 41.1432 6.03067 43.1754
CA 38.3213 16.6441 51.0199
CA 42.0583 -10.8137 57.2964
CA 51.4845 -27.0573 66.9253
CA 39.1006 -13.5257 75.1374
CA 37.7365 -8.78564 75.4507
CA 35.8554 -25.5926 38.4706
CA 25.8039 -6.06614 64.3313
CA 36.1248 -29.37 38.5699
CA 41.933 -8.81855 50.8749
CA 34.1166 -14.8477 64.4308
CA 44.1491 -36.9647 47.5724
CA 21.8908 -7.49079 58.8819
CA 40.9042 -31.3497 38.9644
CA 22.5174 4.27847 2.8933
CA 21.9764 -1.96668 22.7838
CA 36.7991 7.89993 53.1297
CA 46.7829 -14.3049 60.8653
CA 47.8794 -25.3133 54.7688
CA 36.6898 -18.843 88.663
CA 36.0536 -25.9756 47.5306
CA 52.3056 -21.9005 52.8132
CA 45.6951 -10.1187 55.7
CA 23.0833 -20.7172 88.87
CA 44.5908 -34.1621 56.7926
CA 48.5703 -29.9006 66.1904
CA 19.4067 8.77681 16.3166
CA 46.1141 -28.5463 48.7013
CA 61.3077 -6.47675 59.8993
CA 14.1527 -7.48568 55.2045
CA 33.9077 -35.8668 51.0943
CA 18.0417 -13.77 54.3232
CA 39.1758 -35.5717 49.1241
CA 51.9609 -21.2263 44.8821
CA 21.1294 -1.63363 3.24081
CA 33.8055 -14.1549 40.1162
CA 58.2459 -27.8206 64.8924
CA 41.4183 10.0254 43.9186
CA 14.7377 -15.048 56.4902
CA 41.7837 0.598163 65.8479
CA 41.1047 -33.3387 58.3694
CA 25.7925 -4.40738 0.487257
CA 56.561 -18.8829 68.7963
CA 29.0876 -6.47614 70.8352
CA 44.1199 -4.80863 63.3784
CA 21.8131 5.45212 4.37354
CA 38.8334 6.47495 43.5576
CA 53.0486 -5.10745 58.1012
CA 21.3278 -17.1076 40.5006
CA 23.7528 -13.3453 41.128
CA 30.0422 -23.0985 39.5111
CA 40.7367 -5.69131 41.7468
CA 14.5566 -5.03988 60.1422
CA 11.687 -21.2219 52.421
CA 39.9267 -18.6719 41.0819
CA 13.2379 -13.3324 51.8846
CA 22.3796 -18.1476 63.1405
CA 27.7122 3.5054 49.8297
CA 43.4202 -17.5031 68.6565
CA 33.0814 -28.544 33.6353
CA 11.6323 -15.1906 62.691
CA 17.1338 -17.2778 42.808
CA 20.5757 -13.6809 69.0076
CA 16.6463 -0.115379 59.4771
CA 29.5618 -11.9697 93.6654
CA 50.9426 2.75003 44.3574
CA 41.5202 -11.6086 35.4328
CA 57.7858 -8.78223 58.0692
CA 16.0152 -0.366799 57.0174
CA 10.6612 -25.8727 53.0241
CA 9.16597 -20.686 45.9987
CA 44.3299 -19.7621 57.1154
CA 32.0953 13.7497 49.494
CA 21.858 -7.54014 20.4601
CA 29.2909 -22.9478 90.1167
CA 27.6508 -7.42374 66.943
CA 51.7509 -18.5916 64.6525
CA 22.4146 -10.9743 22.063
CA 26.4266 -2.74499 51.2706
CA 34.0059 -9.28862 42.6772
CA 34.7597 15.4733 49.0621
CA 28.8141 -19.9147 53.8917
CA 9.92924 -7.59061 57.3459
CA 57.8713 -8.46402 53.7197
CA 50.6823 -24.8654 50.9271
CA 14.2165 -17.1305 52.8548
CA 35.101 -1.9676 67.6597
CA 46.5108 -11.4182 41.8141
CA 28.3469 -11.4453 59.9059
CA 45.8732 -29.2572 52.0402
CA 40.7372 -14.2532 64.4981
CA 22.5069 -23.8592 83.0179
CA 50.4798 -33.286 54.2364
CA 22.7424 -22.1363 42.2396
CA 9.95627 -19.8 54.3992
CA 47.7674 -30.5832 37.9446
CA 27.5947 -23.3312 39.1658
CA 43.615 -12.4112 33.5638
CA 47.3464 -2.97716 48.4742
CA 57.2892 -22.5773 63.3051
CA 19.4093 -19.2005 39.8326
CA 48.1332 -22.3377 61.2041
CA 44.4912 -23.4588 61.2006
CA 49.3171 -24.5159 37.3934
CA 33.0131 -18.0478 31.6286
CA 45.3115 -19.2807 76.5905
CA 24.1482 -3.30007 5.38917
CA 30.1368 -16.5521 41.3114
CA 27.5881 2.82429 38.6089
CA 51.2791 -3.41998 53.0191
CA 32.2892 -14.4929 65.8822
CA 23.5553 0.450838 34.4934
CA 46.5196 -4.15889 53.2719
CA 23.8627 0.517977 51.1191
CA 46.9538 -14.2956 68.7938
CA 38.1965 -2.91404 36.716
CA 43.3528 3.65274 51.5699
CA 15.161 -22.1536 51.3329
CA 38.8741 -3.74145 43.6182
CA 52.7825 -3.44197 62.8322
CA 40.0128 -14.6067 40.9132
CA 40.7924 -29.9358 59.9757
CA 22.2694 -7.56458 60.6725
CA 15.5478 -17.2267 60.266
CA 26.366 -22.8029 52.5752
CA 40.3231 -24.5798 81.4284
CA 29.0071 -6.63935 41.1959
CA 56.7826 -18.1067 50.5888
CA 40.8915 -34.507 45.8968
CA 27.3994 -20.5414 45.0919
CA 38.9817 1.97572 68.0829
CA 43.0901 -26.7449 57.9727
CA 40.1881 -24.1125 37.473
CA 40.9427 -3.4685 66.4346
CA 41.1651 -12.4607 32.7751
CA 39.1254 -6.20671 49.1105
CA 54.7429 -10.0978 48.4134
CA 21.3464 -16.0187 51.0741
CA 18.1744 5.04309 55.1592
CA 53.6015 -21.8393 73.1546
CA 27.066 1.07198 35.6877
CA 42.7969 -15.3121 42.5703
CA 35.9225 -28.5234 51.6447
CA 59.3646 -32.21 66.3386
CA 28.0147 4.12565 61.5966
CA 52.6188 -34.5447 60.5694
CA 44.345 -13.9367 42.0862
CA 43.4562 -4.21022 40.3786
CA 24.2469 -19.3976 50.3781
CA 29.8745 -8.44738 25.04
CA 39.422 -12.72 61.0097
CA 15.5114 -27.2882 54.3775
CA 36.4529 12.2331 52.9522
CA 42.5573 9.72155 46.1449
CA 21.8154 -4.3366 22.8474
CA 32.2069 -9.85174 76.8476
CA 44.2362 4.58258 42.6018
CA 34.8915 -19.6732 62.3073
CA 40.8756 2.97235 56.2521
CA 19.1677 -1.51601 21.0563
CA 31.3305 -5.96291 69.4435
CA 15.5445 -2.38271 56.0043
CA 51.4065 -25.0767 40.1577
CA 48.8663 -35.4221 62.2718
CA 51.1308 -26.3405 68.8929
CA 53.4903 -5.18586 67.9896
CA 52.6023 -5.01999 63.738
CA 46.1379 -32.8612 56.4326
CA 28.5324 -20.4742 56.6097
CA 27.6339 -13.1929 51.0587
CA 29.5545 -28.2993 45.3001
CA 43.6906 -7.78925 63.3176
CA 37.1145 -10.1141 42.7294
CA 41.4549 -21.8379 56.9291
CA 18.3133 -5.67165 15.8026
CA 28.6792 -7.469 27.0654
CA 21.3295 -4.49974 52.3945
CA 29.3715 -12.3083 54.057
CA 34.9991 -3.59278 60.3427
CA 40.5254 -12.6767 56.0816
CA 52.7509 -21.7878 70.6077
CA 26.3293 -1.79111 44.6069
CA 53.7527 -22.255 47.8554
CA 28.3874 -16.112 85.0917
CA 22.6188 -12.8609 36.6236
CA 20.1245 -8.31405 54.9405
CA 49.9597 -13.4017 65.3211
CA 25.7144 -8.6679 54.8943
CA 43.9207 -1.17847 58.7384
CA 50.044 -26.9553 37.2273
CA 26.8082 -13.0751 57.1827
CA 40.3747 -20.4146 56.5955
CA 21.2252 6.54743 8.29843
CA 12.538 -2.00013 63.1618
CA 28.0831 -20.4235 42.6116
CA 36.5454 -23.9901 35.078
CA 24.2115 -0.894411 3.52605
CA 45.1176 -15.1813 38.1149
CA 23.7644 -20.7256 63.577
CA 46.5997 -9.03719 65.306
CA 49.2989 0.754524 45.3346
CA 38.2826 1.89856 54.238
CA 21.8557 -3.58291 25.8915
CA 24.8455 -24.4555 65.632
CA 31.531 -17.2157 92.6493
CA 25.5946 1.88435 61.8089
CA 37.027 -19.0518 81.9125
CA 17.8094 6.87546 18.8346
CA 20.1099 -17.439 17.5571
CA 50.2453 -25.2748 70.4786
CA 27.2349 6.58263 50.1957
CA 51.8719 -7.01458 68.3951
CA 18.8919 -23.0856 45.8082
CA 44.4927 -13.164 59.3528
CA 24.573 -17.4387 27.2487
CA 23.6716 2.83046 36.683
CA 16.879 -6.08799 22.0673
CA 52.4433 -1.04906 69.9005
CA 26.0956 8.62573 52.6456
CA 20.736 -6.19915 19.2606
CA 23.2946 -22.1833 46.4537
CA 29.4165 -13.7963 78.8659
CA 27.2715 1.97277 58.6869
CA 39.983 -36.2778 53.8597
CA 20.1914 -8.25126 58.2306
CA 24.1478 7.94584 64.9511
CA 37.3119 -13.0693 79.4751
CA 30.2332 -23.475 92.1894
CA 36.2923 -1.67667 37.7419
CA 39.6728 -22.5223 62.3079
CA 43.3248 4.57819 56.2906
CA 27.7583 -14.1429 53.904
CA 32.3721 7.51655 68.1493
CA 32.8421 -21.2681 44.9666
CA 36.0549 -17.9885 32.5312
CA 44.8124 -0.934514 39.4287
CA 52.1212 -1.09467 51.0706
CA 50.9124 -34.6467 47.5372
CA 30.7226 -8.22283 34.4314
CA 18.4374 -9.02102 18.6415
CA 46.9732 -16.4062 70.6027
CA 44.7423 -35.5439 43.8958
CA 23.0046 -6.8642 49.2205
CA 54.1528 -3.95277 73.3183
CA 56.6327 -16.3046 51.0766
CA 13.6466 -26.2128 56.5984
CA 19.2869 -1.44435 24.5575
CA 44.8537 -22.329 59.574
CA 39.0801 -9.25143 77.2066
CA 26.5142 11.5519 43.8149
CA 33.0688 -28.9387 46.3922
CA 14.49 -13.1487 57.2249
CA 21.3561 -9.14039 44.403
CA 45.2314 -29.5094 55.0044
CA 35.3969 10.3684 65.2694
CA 45.3742 -31.9656 61.27
CA 29.4654 7.6166 41.742
CA 55.7676 -17.8596 55.321
CA 54.1498 -32.301 47.7135
CA 30.8491 -13.5218 31.0026
CA 40.093 8.63833 60.3328
CA 30.5681 2.12857 50.7883
CA 48.5247 -15.138 74.7266
CA 34.2868 -26.3192 47.2156
CA 49.9968 -23.1308 46.6348
CA 34.9875 -10.4019 82.7308
CA 57.576 -10.1262 49.787
CA 30.2237 -2.07826 57.133
CA 33.7321 12.1726 48.9084
CA 16.6231 -13.0147 45.5261
CA 38.656 8.03544 45.6212
CA 50.6189 -29.2286 35.9068
CA 34.6408 3.95477 52.8354
CA 12.6518 -2.89062 58.5649
CA 34.9899 2.62957 59.5189
CA 31.7247 12.5788 53.4705
CA 50.6601 -35.1038 57.4774
CA 33.736 -18.3165 39.2246
CA 37.4 -7.89631 58.6363
CA 47.2685 -11.9061 57.5987
CA 48.7633 -33.0316 50.8495
CA 20.5779 -8.61957 19.4555
CA 33.8912 -29.826 36.6074
CA 50.4589 -18.1454 49.3568
CA 32.048 -10.5249 38.6036
