489

CA 46.6315 -3.72402 53.8889
CA 40.9154 -5.12597 78.9706
CA 43.0988 7.84139 45.4415
CA 43.0448 -32.2926 43.2612
CA 14.1122 2.02272 61.8884
CA 37.8706 -8.84486 33.8604
CA 51.3352 -13.5017 63.3072
CA 36.8942 -14.9236 57.8542
CA 55.9194 -20.319 61.0329
CA 40.2417 1.41061 46.3728
CA 42.1485 -28.5019 40.4869
CA 24.7124 -19.0264 60.0935
CA 59.8556 -12.2403 52.6787
CA 45.4524 -28.6459 37.8996
CA 39.0974 -20.8854 58.4501
CA 51.3504 5.08379 46.3349
CA 49.1977 -25.4056 41.4329
CA 39.7684 11.7082 49.6578
CA 44.2333 -9.17742 74.9795
CA 25.3832 -5.60226 45.1516
CA 35.3915 1.55522 61.5869
CA 34.7041 -13.0785 64.338
CA 44.2565 -3.81379 36.4606
CA 47.8503 -24.4814 40.581
CA 55.2345 -20.686 56.4572
CA 23.3191 -13.5238 40.3948
CA 27.1094 3.4485 41.1819
CA 55.7547 -30.403 39.1553
CA 27.5946 9.54863 46.7255
CA 24.3452 -14.1675 37.0313
CA 29.1374 -8.95597 33.1769
CA 38.4492 -4.20453 34.9279
CA 33.2891 -0.415342 60.8553
CA 11.9178 -26.9206 55.7651
CA 46.1188 -16.9256 34.3466
CA 15.6866 -18.8072 57.1934
CA 53.8613 -27.3227 68.7163
CA 20.426 4.09515 50.8549
CA 41.15 -10.1649 65.9808
CA 32.5564 -9.52086 40.37
CA 37.608 -26.1429 63.0902
CA 48.3098 -2.1602 50.3591
CA 38.4133 -24.5557 58.7765
CA 31.8458 16.3951 50.2948
CA 35.523 -4.68272 45.2065
CA 56.3835 -16.6218 56.1569
CA 21.4121 3.53616 21.6993
CA 46.944 -8.28001 58.341
CA 42.7295 -5.42837 83.1173
CA 27.3711 3.06428 38.3208
CA 30.2964 -11.8502 58.6034
CA 20.8605 -9.63474 29.2405
CA 54.7133 -30.508 42.0919
CA 37.4328 -14.9216 84.6264
CA 42.6547 -7.91928 47.4923
CA 40.064 -19.0362 62.3812
CA 42.0107 -5.7649 53.3251
CA 57.4785 -30.1592 69.2736
CA 32.202 4.98675 68.2594
CA 38.0601 7.65384 44.6645
CA 42.7475 -25.3098 41.1592
CA 36.1721 -5.15598 70.5979
CA 10.6853 -15.6516 60.0264
CA 14.8862 -24.4268 54.9892
CA 45.1125 -18.862 57.5149
CA 11.7142 -25.1831 54.3819
CA 37.4998 13.8641 50.1207
CA 23.7055 -3.36799 2.9998
CA 12.151 -16.6845 64.5945
CA 24.8303 -2.39535 1.26135
CA 46.834 -21.3467 58.3993
CA 41.5795 -24.1722 57.9926
CA 22.7117 -7.14806 45.554
CA 30.5587 1.24404 64.8842
CA 26.2049 -7.31755 27.2452
CA 37.6721 -12.979 43.6292
CA 43.1766 -8.13133 37.2881
CA 32.2138 -29.4972 62.5551
CA 27.2449 -17.3858 70.305
CA 27.2746 -21.0639 40.4243
CA 38.053 6.27387 48.2472
CA 28.6425 -24.5319 97.3637
CA 29.876 -5.36449 67.5031
CA 51.0021 -1.89409 38.5393
CA 21.345 -15.402 46.1075
CA 28.1665 -13.9023 45.1038
CA 26.4698 -24.8229 48.8107
CA 58.049 -31.2521 38.1754
CA 48.0842 2.45619 36.2421
CA 37.2637 -27.4765 50.7532
CA 21.2484 1.55635 54.4812
CA 33.5476 -5.45724 58.6376
CA 49.5537 -1.13748 37.0198
CA 37.8098 -5.4812 79.9947
CA 39.4466 4.95337 46.1245
CA 21.7304 0.531682 51.5637
CA 53.0127 -21.0796 51.4539
CA 44.3715 5.56672 58.6099
CA 24.7279 -4.18883 33.2292
CA 47.3501 5.58291 52.3114
CA 34.8187 -15.2359 79.5095
CA 42.6208 -29.425 56.9181
CA 32.525 13.9856 52.5754
CA 44.5543 7.65128 52.2875
CA 43.2314 -35.0022 44.277
CA 41.958 -15.2939 80.7382
CA 12.8227 -11.9633 53.0476
CA 59.7288 -29.6489 38.4475
CA 54.7309 -27.0671 75.109
CA 59.8905 -19.7123 45.2431
CA 15.9795 -21.3338 50.8027
CA 36.0855 -28.905 42.363
CA 50.6708 -7.48014 38.6165
CA 14.9492 -0.103772 54.5793
CA 37.231 3.74608 58.6089
CA 32.7073 15.1674 48.4879
CA 20.5796 10.5616 10.9353
CA 54.3585 -10.7016 48.9548
CA 27.9792 -3.55788 -1.68893
CA 35.5621 -12.0379 65.7006
CA 19.9719 -6.48173 56.8972
CA 43.4946 -6.14025 51.7448
CA 14.1913 -3.77848 63.0741
CA 32.9681 -10.5134 67.4921
CA 37.9314 -14.1167 36.4326
CA 17.3682 -3.92636 16.5432
CA 49.0336 2.68015 43.6078
CA 35.899 10.9696 50.7027
CA 46.6713 -4.44749 33.1197
CA 8.96594 -11.7951 44.7125
CA 21.6964 -16.3567 51.1258
CA 38.6324 -7.76751 69.5909
CA 37.034 -10.3467 58.0408
CA 57.4165 -16.8161 47.8911
CA 14.3024 -19.4088 42.874
CA 10.8408 -10.9904 47.1322
CA 25.521 -10.9232 25.9621
CA 24.2758 -3.85023 35.7675
CA 12.0914 -23.8356 52.0327
CA 44.2993 -29.6318 42.2646
CA 23.6653 -0.828562 16.0791
CA 34.1141 -5.86736 42.0394
CA 51.8429 -29.219 38.4103
CA 44.7338 -20.3243 62.1162
CA 16.6062 -13.9 18.0645
CA 24.0402 3.60124 44.2156
CA 46.8584 -14.58 40.4393
CA 23.2029 -8.57833 36.5694
CA 52.3608 -34.1911 39.7877
CA 59.8218 -17.1686 59.6547
CA 29.9229 -4.71699 49.7308
CA 37.921 -36.5474 44.3004
CA 24.6829 -27.8181 58.8143
CA 30.1521 -27.0015 52.5018
CA 42.5837 -18.1689 32.8375
CA 19.9782 -19.902 59.0273
CA 56.8422 -25.1503 47.8359
CA 28.9077 -11.8147 26.5332
CA 52.4658 -22.3369 70.7055
CA 17.6013 -15.1082 43.1672
CA 42.0265 -7.41237 54.052
CA 44.5178 6.64387 48.3784
CA 34.0086 -17.2841 88.5797
CA 33.7927 -15.7193 33.4952
CA 45.6948 -7.28934 57.2298
CA 49.9678 -10.6478 60.6894
CA 55.3093 -24.4835 73.6898
CA 25.5696 -3.76306 29.6832
CA 47.6369 -23.0478 53.0939
CA 11.4557 -5.62346 60.6333
CA 52.7812 4.17803 43.8032
CA 60.8543 -33.8186 69.0296
CA 35.2769 -4.78981 47.0544
CA 26.3604 -23.7244 55.1161
CA 27.609 4.32288 45.4248
CA 45.9897 -9.51355 62.601
CA 32.6646 6.20832 64.5929
CA 18.4574 -11.7775 63.918
CA 48.6915 -16.9016 59.6583
CA 47.5939 6.28823 55.182
CA 41.8822 -15.7947 85.865
CA 35.7906 -5.74307 64.2784
CA 26.8557 -15.4279 53.536
CA 56.7902 -16.5266 64.8342
CA 41.351 -23.6067 37.7221
CA 21.3519 -12.7408 32.6078
CA 55.0753 -15.5774 46.5392
CA 21.2953 1.30314 4.60742
CA 49.0657 -14.0226 51.7287
CA 52.7656 -36.0684 41.8114
CA 23.7409 0.32496 33.9932
CA 43.423 -25.1269 50.2855
CA 31.2194 4.68121 45.54
CA 46.9115 -16.283 57.5189
CA 40.7024 14.6557 56.656
CA 39.93 -24.707 61.3872
CA 28.5342 -21.9513 50.1248
CA 33.5011 11.5492 63.9404
CA 32.6419 -26.1006 40.6574
CA 30.2567 -7.71323 70.213
CA 25.7578 -13.7281 58.1283
CA 54.5133 6.63945 44.9998
CA 58.0555 -4.70229 66.9592
CA 38.4972 11.1166 44.968
CA 13.5572 -18.0854 45.0571
CA 56.7045 -22.7271 67.3413
CA 42.0583 -10.8137 57.2964
CA 49.2625 7.76838 46.4791
CA 53.6355 -11.9922 55.5887
CA 40.0501 -8.41317 47.5452
CA 14.0515 -24.8131 50.5967
CA 56.2498 -28.7452 71.9587
CA 47.9251 -11.7497 70.1901
CA 54.1935 0.549775 58.3843
CA 50.5839 -17.2179 47.5179
CA 26.8981 -15.2072 65.5262
CA 27.8181 -4.38149 47.9516
CA 29.6049 -17.8806 98.0441
CA 28.9576 -24.3769 93.1237
CA 35.4839 -3.33847 40.738
CA 62.236 -2.96397 68.6138
CA 26.3295 -7.70078 50.2018
CA 35.7051 11.2201 58.4775
CA 21.2388 -11.1145 30.3934
CA 45.4552 -25.299 54.1744
CA 33.4028 1.51227 61.395
CA 25.8222 1.39889 62.1458
CA 32.4245 -9.66073 64.6419
CA 54.0846 1.33135 47.6857
CA 47.1418 -16.6904 61.5414
CA 19.4067 8.77681 16.3166
CA 44.742 -6.1735 37.4849
CA 52.953 -14.3435 51.8912
CA 26.0199 -1.58865 58.8169
CA 33.0061 -14.2519 44.4962
CA 39.0002 7.67537 40.9015
CA 52.0203 -21.301 68.6766
CA 45.5067 -13.5591 60.2149
CA 21.1294 -1.63363 3.24081
CA 17.2429 5.38215 59.7794
CA 34.2202 7.16313 40.6585
CA 20.0874 10.375 7.2203
CA 32.1646 -19.9415 53.6416
CA 28.1967 -23.2444 46.1823
CA 50.8516 -25.8953 72.4309
CA 25.7925 -4.40738 0.487257
CA 52.566 -17.6701 63.1391
CA 39.5418 -5.6464 83.6467
CA 21.0193 -15.4536 38.0822
CA 18.4314 -0.582149 2.95331
CA 24.8576 -0.675273 3.1532
CA 50.3334 -17.0706 36.2576
CA 60.7184 -14.7987 46.3089
CA 33.2145 -24.9531 91.9724
CA 43.9785 -4.59368 49.1219
CA 35.7032 -6.40723 43.9039
CA 50.6955 -24.9042 65.6516
CA 44.3818 2.15679 66.2846
CA 35.7549 -32.844 49.4041
CA 13.2379 -13.3324 51.8846
CA 42.6619 -15.6574 40.8416
CA 28.3746 -16.9815 60.5822
CA 35.8447 18.1322 53.9562
CA 31.934 19.0896 50.7425
CA 19.1815 -18.0218 60.886
CA 53.6312 -5.61799 67.8244
CA 25.9152 -8.19079 33.7777
CA 34.5273 1.42298 54.0975
CA 22.2789 -1.12828 20.0855
CA 52.3422 -23.7059 50.3886
CA 49.9271 -21.8562 51.0892
CA 52.4633 -26.2016 59.7799
CA 38.7011 -4.33173 68.8596
CA 24.0148 -13.9103 53.906
CA 32.8327 -32.0486 42.8713
CA 12.3847 2.5697 56.5923
CA 39.9215 -16.6451 31.4706
CA 21.8777 -2.47509 49.9635
CA 31.8767 5.00036 47.3056
CA 37.8288 -18.573 83.2655
CA 35.8448 -29.5798 53.7908
CA 22.4146 -10.9743 22.063
CA 25.6467 -6.09375 59.0338
CA 34.0059 -9.28862 42.6772
CA 47.2664 -18.5315 39.6713
CA 14.5819 -6.65399 58.3947
CA 35.436 -8.55741 32.7928
CA 57.8713 -8.46402 53.7197
CA 45.2495 -41.3584 45.2498
CA 12.4403 -15.4622 57.3885
CA 17.6723 -17.6109 58.7419
CA 24.5847 -3.25726 45.7489
CA 18.7975 -21.0553 63.5362
CA 30.4931 -13.2993 48.035
CA 35.6733 -21.3313 66.8041
CA 27.0008 -12.8639 28.9669
CA 53.6583 -25.4608 41.313
CA 31.6339 11.5909 36.2331
CA 34.345 3.48774 64.3709
CA 33.2729 -24.8805 45.6642
CA 55.129 -28.6963 36.1824
CA 39.3595 -12.5932 80.1085
CA 15.6183 -21.7103 67.1559
CA 33.4928 4.0843 53.7609
CA 34.6004 -15.4044 48.6536
CA 41.6789 1.45829 57.7093
CA 33.7864 18.4334 45.5546
CA 34.7273 -27.6313 60.8432
CA 51.9008 2.80558 52.2494
CA 16.7357 -16.804 62.5828
CA 56.7644 -10.7787 49.3653
CA 10.8704 -22.1765 56.682
CA 50.0123 -1.35967 49.0516
CA 25.4165 -27.3752 52.5903
CA 36.0375 13.8664 54.9534
CA 21.7793 -3.59381 46.0843
CA 35.5643 -1.17945 65.9092
CA 33.1615 -14.308 56.1249
CA 30.8865 -20.4338 91.8212
CA 33.8868 -1.58852 54.9415
CA 38.2253 -10.6589 36.944
CA 49.185 -0.516673 62.5064
CA 24.7115 -16.7407 29.6621
CA 26.2003 -14.6155 44.5669
CA 33.2497 -7.90335 53.4107
CA 50.0945 -10.0379 35.4592
CA 19.3068 -5.01341 21.5559
CA 28.2889 -0.900422 58.2079
CA 51.8744 -6.15252 67.3402
CA 35.4435 -33.7494 40.0334
CA 36.9233 -21.7486 43.2999
CA 22.2 -13.2958 25.2747
CA 37.9123 -22.0046 62.9326
CA 32.3324 -17.5564 51.3474
CA 45.5619 -35.6394 46.3667
CA 33.33 -20.0839 80.7536
CA 27.6712 -7.33768 36.5164
CA 43.1169 -5.91479 41.2645
CA 44.8425 -24.4047 39.9898
CA 50.8401 -24.9941 51.0298
CA 47.4638 -20.8258 50.1729
CA 22.7419 -7.04236 33.2665
CA 59.5905 -24.1434 46.7961
CA 53.6015 -21.8393 73.1546
CA 43.2095 -15.8366 43.3385
CA 57.6334 -28.4763 34.1879
CA 33.5964 -7.14788 68.6827
CA 29.5259 -26.4365 88.1568
CA 43.4296 -2.7265 38.5078
CA 31.8789 -6.25941 41.0481
CA 34.0947 -26.3097 41.7805
CA 54.1341 -4.93123 49.8849
CA 42.0442 -9.11047 82.1021
CA 34.4651 12.0214 54.3126
CA 39.422 -12.72 61.0097
CA 53.5753 -25.6189 55.4347
CA 36.3019 3.61957 66.1494
CA 25.7935 -13.6173 53.5713
CA 42.1635 -30.4602 49.0147
CA 29.757 -5.36586 53.6319
CA 58.4535 -14.1392 48.2721
CA 29.0943 -33.5762 41.0547
CA 41.7492 -16.7717 77.0171
CA 19.1677 -1.51601 21.0563
CA 10.4263 -15.6053 46.7649
CA 22.258 4.26163 56.274
CA 25.8725 5.38385 51.0632
CA 14.093 -5.65757 56.5955
CA 51.1308 -26.3405 68.8929
CA 49.273 -10.9 36.8578
CA 29.9642 -14.3985 60.5312
CA 46.1379 -32.8612 56.4326
CA 56.2753 -18.4062 61.1564
CA 43.5842 -7.54798 86.5574
CA 51.8162 -30.0983 42.2711
CA 62.687 -10.117 53.4359
CA 33.8611 -1.20862 67.8798
CA 17.5758 -6.89903 62.0287
CA 18.9043 -8.57222 15.4618
CA 3.28999 -16.8328 61.6975
CA 24.6238 -0.219675 53.3236
CA 57.1494 -15.9615 42.2133
CA 43.0636 -12.8464 78.1977
CA 45.5248 -34.7855 48.7295
CA 11.2017 -17.6711 51.6443
CA 41.1522 -4.9556 73.9358
CA 28.6405 0.904327 65.6985
CA 28.952 -18.2936 61.7912
CA 47.2376 -5.22946 40.2194
CA 57.693 -22.3124 47.6432
CA 49.9597 -13.4017 65.3211
CA 29.476 3.82578 41.2958
CA 43.9207 -1.17847 58.7384
CA 20.6113 -0.976233 52.9408
CA 44.5946 -0.18923 63.2965
CA 27.7924 2.00501 47.2234
CA 21.2252 6.54743 8.29843
CA 11.012 -0.584939 57.3924
CA 42.6106 -38.4106 48.9186
CA 54.0034 -2.23412 63.9184
CA 39.9615 16.5901 59.0988
CA 17.8315 -17.3969 41.8019
CA 58.145 -10.0511 69.2406
CA 46.5997 -9.03719 65.306
CA 39.1855 -16.7773 44.754
CA 35.0875 -3.04206 36.4153
CA 60.6431 -7.38787 69.264
CA 54.0766 -9.42223 53.1618
CA 11.3906 -21.2411 54.7188
CA 25.6159 -25.6333 86.2818
CA 23.0363 9.09266 50.9269
CA 17.8094 6.87546 18.8346
CA 20.1099 -17.439 17.5571
CA 55.2312 -30.3679 69.3113
CA 34.8296 -13.8775 32.8087
CA 56.5117 -23.1784 57.1366
CA 19.6883 5.24718 3.87425
CA 43.8219 -13.386 44.8143
CA 7.42121 -18.1316 60.978
CA 27.038 -5.52595 38.5303
CA 36.2661 -14.9006 36.4213
CA 30.617 2.98162 43.5119
CA 31.7687 9.5683 38.3158
CA 20.736 -6.19915 19.2606
CA 49.2477 -13.0478 32.541
CA 9.8369 -3.77212 60.8595
CA 58.9728 -25.0375 31.1561
CA 30.3362 0.519476 56.4518
CA 23.5995 7.12062 45.8551
CA 57.0989 -32.0376 68.3988
CA 37.3119 -13.0693 79.4751
CA 43.9701 -4.37192 60.1888
CA 30.5368 -8.95217 57.5837
CA 35.4155 -18.0589 60.2466
CA 62.12 -9.51908 69.0197
CA 34.7744 -19.7061 53.5699
CA 28.4964 -11.5256 50.9781
CA 13.8633 -1.54675 62.9033
CA 56.3667 -22.013 65.5677
CA 45.1891 -10.4172 31.5216
CA 59.8547 -29.0622 36.6928
CA 44.9619 -13.4376 54.9747
CA 18.3859 -13.7213 39.3706
CA 18.4374 -9.02102 18.6415
CA 17.7601 -18.7062 47.8373
CA 28.4066 -13.3948 53.8228
CA 31.6677 -6.79049 50.9484
CA 41.6917 -21.411 42.8469
CA 32.8538 -15.3092 42.955
CA 36.1326 -7.42005 66.5233
CA 50.9863 -1.30855 59.2594
CA 38.407 -5.85313 74.0727
CA 30.1919 -20.3775 80.9029
CA 18.0688 3.55667 59.0351
CA 32.3877 -21.8014 95.8988
CA 47.1985 3.08096 44.3569
CA 15.0431 -13.7469 46.8581
CA 55.5427 -11.8054 54.5876
CA 27.0963 -21.7114 53.0181
CA 30.3826 -16.6252 38.729
CA 53.039 -40.0339 41.0043
CA 21.1155 -21.058 56.0861
CA 42.299 -8.81882 60.1433
CA 36.3546 -16.0765 52.4057
CA 25.0764 -27.3325 54.5749
CA 23.3107 -4.84517 46.0193
CA 49.809 2.08538 46.5743
CA 34.2868 -26.3192 47.2156
CA 28.0829 -5.67835 56.5451
CA 27.9826 0.122157 2.50305
CA 46.8104 -27.3244 56.3758
CA 24.9646 -3.55934 57.5502
CA 20.6693 4.72614 60.9898
CA 18.5647 -19.9937 39.3322
CA 42.8566 -9.47597 85.0111
CA 40.6263 -8.26078 49.5078
CA 41.5908 -13.1046 40.9459
CA 22.9118 -8.95523 23.751
CA 21.9299 -10.749 49.8401
CA 36.8127 -30.8726 45.8781
CA 42.1392 -11.8114 44.6041
CA 58.9137 -18.0378 44.456
CA 34.0743 -31.7349 44.3933
CA 9.52354 -22.9413 51.8523
CA 26.1564 -10.802 60.8764
CA 20.5779 -8.61957 19.4555
CA 17.6636 -10.3208 59.4126
CA 31.4568 -12.0468 33.4047
CA 34.7296 -12.3122 34.2162
