489

CA 26.8381 -6.66921 66.9995
CA 6.16033 1.90019 44.4892
CA -25.7316 27.7318 43.9401
CA -2.46034 4.16083 48.4254
CA 16.1751 3.20084 67.6037
CA 11.1791 16.6661 24.8133
CA 33.6151 2.84032 56.2358
CA 28.2836 7.69906 39.2026
CA 33.6308 -9.47224 48.7749
CA -7.24045 27.3955 41.3974
CA 23.6968 -1.13513 66.6044
CA 20.5181 -2.01325 61.4041
CA 9.05405 18.8117 27.2322
CA -25.6654 -4.27952 28.5048
CA -1.82905 2.2642 37.1351
CA 12.4703 7.03736 69.4253
CA -10.1733 2.28058 35.3643
CA -18.1441 -15.2722 41.1465
CA -19.5054 33.8472 43.4071
CA 15.4768 7.42806 47.055
CA 20.4864 -32.3432 69.4268
CA 25.3676 -7.29028 63.4305
CA 19.5855 -3.61299 49.0631
CA -2.50269 2.63055 49.5233
CA 10.7315 -20.2654 62.5785
CA 18.727 -12.5376 65.812
CA -6.48277 -5.68099 45.3782
CA -5.2623 23.1297 52.0501
CA -21.8161 25.4535 39.9472
CA 18.7058 -0.808433 69.4854
CA -3.6641 -12.634 66.1871
CA 11.9125 0.689583 41.0035
CA 23.8827 -11.4578 69.96
CA 0.93027 -26.0208 32.0688
CA 7.88078 12.2411 34.6526
CA -23.703 -9.713 20.4965
CA 23.2417 -13.7014 54.2854
CA 15.3408 -8.80443 74.3873
CA 20.0933 -13.4213 50.0015
CA 8.7151 -1.14451 45.5612
CA 28.4614 -5.03472 71.3678
CA 26.318 1.51011 65.8841
CA 29.466 -6.77231 48.6575
CA 4.0253 17.8731 19.8994
CA -0.460148 -1.84349 48.5623
CA 3.63232 -24.6834 29.02
CA 10.0796 10.6237 55.6343
CA 16.4385 -14.9852 55.6894
CA 36.4596 -6.07594 48.7208
CA -21.6955 31.2348 40.7055
CA 17.1781 -0.9194 72.1806
CA 23.2202 -6.31828 41.5779
CA -6.37794 -18.6577 29.7261
CA 7.25716 -19.5002 59.4718
CA 14.5801 7.62881 63.0408
CA 12.007 -14.1978 66.8011
CA 18.01 -10.73 46.8857
CA -4.45991 0.842739 45.1716
CA -5.19302 -10.3926 35.6223
CA 26.9164 11.073 38.1764
CA 39.4511 11.2534 58.7022
CA 16.1591 11.0302 51.9852
CA -11.5065 3.78154 56.024
CA -25.9415 17.0029 45.6931
CA 25.8723 -6.53202 55.2902
CA 3.28792 10.2803 43.6605
CA 3.4967 7.10654 69.0574
CA 30.971 -3.47495 61.6847
CA 0.172906 21.9766 42.4076
CA -16.0998 -29.3556 26.1054
CA 5.83148 3.86082 38.5992
CA 15.0194 6.59523 57.1006
CA 8.51562 -18.4424 72.3881
CA 10.2477 -0.717384 65.6255
CA 41.2679 13.8875 55.2037
CA 11.0588 6.32026 51.7106
CA -0.102458 6.37546 35.0512
CA 5.46955 -5.30479 46.5688
CA -2.02604 -3.42971 47.8377
CA -7.35202 35.3425 67.0389
CA -41.7543 15.0679 60.0437
CA -2.4771 -12.1849 50.108
CA 23.2059 -3.15623 64.7041
CA 41.0527 -15.3215 55.7368
CA 4.2654 -0.607545 32.7858
CA 12.7447 22.1601 47.6475
CA 0.0157883 7.48948 51.3651
CA -7.26625 -1.34527 40.3532
CA 8.06714 -8.41968 75.7822
CA -39.0035 9.76244 52.2241
CA 14.2305 3.00387 69.3752
CA 35.4181 -11.0121 51.5747
CA -4.47475 8.78545 58.3996
CA -8.87957 20.1874 40.9916
CA 1.3501 -6.68628 33.3868
CA 17.569 4.40961 68.6615
CA -9.08503 30.1772 52.9827
CA 8.84486 -2.64445 37.1557
CA -14.026 0.0777617 35.634
CA 11.8826 12.286 37.2617
CA 7.00839 13.0802 30.0963
CA 2.23005 -8.69383 46.9943
CA -3.8504 0.443737 42.7497
CA 3.88611 -20.192 58.8135
CA 22.213 1.88088 68.7312
CA -14.6339 -26.8256 24.1675
CA 15.4337 -32.3011 77.2509
CA 24.3122 -3.10803 41.5074
CA 6.36569 -7.98301 70.8476
CA -9.95813 24.085 40.7771
CA 19.2458 23.4824 41.8708
CA 14.4011 0.296896 69.1238
CA -6.22253 -15.3958 36.8479
CA 23.7042 6.41591 41.6305
CA 4.54796 16.3024 31.1361
CA 12.6986 8.19957 51.2444
CA -24.2803 25.8924 39.907
CA -14.0323 -30.7909 23.3226
CA 15.2063 14.1723 41.9086
CA -19.6394 -28.1982 43.7932
CA 17.3054 -28.2874 72.4106
CA 13.5364 19.2824 44.1977
CA 37.7855 -11.2293 64.9048
CA 12.3538 -6.97769 64.9714
CA 18.575 12.2048 65.5539
CA 7.59149 -9.51213 46.7897
CA 17.4439 -6.014 61.7242
CA 10.7159 -15.7823 51.0398
CA 29.5044 1.72042 64.7632
CA -11.3375 7.98741 35.2617
CA 11.5431 20.9083 14.1159
CA 7.40562 -9.56677 66.2246
CA 13.0094 -9.72813 66.8211
CA 14.4499 14.483 40.2843
CA 8.26609 -7.73359 64.783
CA 17.2769 -16.8458 47.2197
CA 6.57809 -16.3025 62.239
CA -8.21902 -4.98987 35.3224
CA 5.62768 9.26377 44.9529
CA -1.32592 -2.30192 63.8065
CA 5.03807 12.0478 40.071
CA -12.4361 -30.9275 24.2219
CA -2.81178 11.646 52.7741
CA 15.8727 -3.22028 64.6104
CA 6.23447 17.4245 29.2834
CA -12.3803 -23.6354 36.1325
CA 28.4902 -11.4921 57.8866
CA 12.6173 -2.64863 58.3658
CA 12.1103 -15.579 43.3381
CA 22.854 -3.16904 73.5505
CA 34.8668 -7.88186 66.5675
CA 23.3217 -25.2112 68.0503
CA -23.7907 30.4065 38.2031
CA 12.5543 17.8615 18.5728
CA 5.54672 -0.598433 48.4062
CA 9.7871 8.04534 44.4771
CA -15.1894 27.2937 36.3934
CA 25.7988 -4.39812 68.3776
CA 11.4664 -7.78015 38.3844
CA 15.3675 1.43315 52.0396
CA 26.2002 -4.27072 40.1349
CA 27.5266 0.431616 67.0669
CA -5.94456 10.192 38.8198
CA -16.5397 -26.8475 29.1179
CA 12.1102 4.63633 65.565
CA 8.01045 0.659907 42.752
CA -12.706 5.89147 35.6696
CA 4.22478 -19.0993 64.3798
CA 3.23542 -14.6989 49.8026
CA 16.5832 -6.01395 39.9057
CA 17.6836 -11.3742 35.2009
CA 1.27349 14.441 45.2813
CA 21.8612 -9.09782 59.4993
CA -7.98485 -18.6022 35.5012
CA 3.20524 4.13579 69.6431
CA 19.4808 -1.04854 71.9182
CA 31.7782 -7.57439 49.2576
CA -7.41272 1.52919 43.437
CA 31.0432 -1.6217 64.2021
CA 9.244 -9.6743 55.7326
CA -4.99065 2.7541 52.3993
CA 32.6168 2.7394 58.8726
CA -5.23208 4.67646 39.2195
CA 4.91876 -6.3008 67.4451
CA 24.3724 4.99584 37.6825
CA -4.7963 20.3103 40.899
CA 10.3336 25.1391 38.9094
CA -5.68488 -24.7592 73.9097
CA 19.9386 -10.0927 58.6964
CA 28.0992 -6.1233 65.56
CA 6.07862 -5.50202 54.597
CA 6.51342 10.0235 23.8719
CA 13.5175 16.1362 27.4156
CA -11.8859 -24.4296 26.5585
CA 41.4592 15.5686 54.1343
CA -6.28256 -0.771505 31.571
CA -11.0219 12.131 35.8599
CA -3.43014 12.32 90.3318
CA 3.32677 16.0747 37.5569
CA -39.5093 14.5519 65.4582
CA 6.66304 16.4964 40.1651
CA 14.0442 -0.518746 37.9578
CA 13.9898 6.6653 67.7371
CA -14.999 -9.1109 24.3237
CA -19.4227 13.4431 51.908
CA 0.0387323 18.9633 20.4276
CA 12.8974 -11.3706 42.427
CA 11.7471 2.68805 65.1468
CA 19.8267 -30.2939 71.7402
CA -0.570948 10.0515 40.5568
CA 17.2136 -19.3445 68.359
CA 29.2933 -3.76227 64.6427
CA -13.7168 31.2714 39.6183
CA 37.7522 -12.0743 56.5211
CA 0.996838 3.14604 55.5285
CA 8.36751 -4.68725 72.5766
CA 3.23392 9.88334 24.1617
CA 24.2018 -12.3852 56.2043
CA 6.61027 14.1243 89.7862
CA 18.0444 -2.75229 65.7794
CA 3.42038 1.10253 34.7422
CA 15.1357 5.39457 50.3208
CA 14.5911 -15.4254 57.4262
CA 13.5303 -21.0281 70.0817
CA -12.4138 -28.4457 26.902
CA 31.4493 4.0948 37.4948
CA 11.2552 17.2717 43.8196
CA 5.14214 -1.7642 56.7074
CA -23.1305 -14.1549 22.233
CA 1.99027 7.2601 52.6355
CA 15.5817 10.4133 61.9529
CA -8.30586 -16.5823 36.541
CA -22.0924 -9.60276 23.6209
CA -3.53039 -6.74255 49.5156
CA -2.90519 10.4918 90.3102
CA 22.0276 -29.0557 72.3868
CA 26.7743 -4.5254 34.6612
CA 18.3581 -9.24971 35.5436
CA 11.2079 -5.58707 54.0183
CA -5.55412 20.4415 53.4286
CA 3.33069 2.79433 36.2117
CA 16.9088 -16.9522 56.9903
CA 24.3235 -6.36306 69.6942
CA -43.9653 12.6819 63.5727
CA -1.07751 -13.823 48.0486
CA 11.014 6.61009 55.3199
CA -26.4861 22.8095 37.3168
CA 10.2613 -13.2682 70.1698
CA 19.2044 -2.14387 40.5459
CA 0.186867 10.6368 44.4239
CA 17.4428 10.2699 59.2885
CA 10.1976 -12.4111 57.0875
CA -6.32359 2.87995 45.7975
CA 27.2455 1.85817 59.6113
CA 18.0948 10.2501 63.9428
CA 12.8802 18.2256 16.3635
CA 16.0739 -12.6806 55.4995
CA -8.2287 15.0221 95.6461
CA 2.21246 -3.025 49.2067
CA 0.285677 8.873 66.4473
CA -21.9959 17.3665 45.5174
CA 23.5563 -2.22259 50.3808
CA -14.2642 24.551 42.364
CA 28.9641 -7.65724 69.1112
CA 1.95665 1.85511 62.5163
CA 27.4623 1.1381 62.2276
CA 6.12355 14.7205 27.9103
CA -39.6005 15.6943 62.1242
CA -0.152141 -3.01674 45.314
CA 1.61972 4.64822 67.7123
CA 6.49262 -2.24986 52.8414
CA 1.88167 18.4605 18.8902
CA 21.5963 9.52792 64.2663
CA 12.0826 -9.96876 75.3712
CA 24.4527 -1.15772 63.5788
CA -7.09041 6.01186 37.809
CA 8.6916 -6.20033 71.248
CA 12.9459 -3.1191 38.7176
CA 16.747 -8.95662 34.4805
CA -15.9919 29.9295 41.2183
CA 16.078 2.88187 58.9475
CA -3.8785 -1.92807 48.3353
CA 16.5012 -0.732321 68.0993
CA 9.05874 -2.44336 66.5098
CA 19.6719 -7.07686 37.5822
CA 28.8357 -0.220997 65.0005
CA 27.2633 -3.22395 69.6476
CA 2.27908 11.9081 19.8499
CA 6.17427 -15.961 43.1068
CA 11.8861 15.4914 33.582
CA -20.3649 16.9341 48.3542
CA -5.5581 5.10559 52.4215
CA 12.102 -14.9235 73.0362
CA 22.6125 8.75972 66.0735
CA 3.69792 -18.3939 35.506
CA 13.939 -5.72361 55.3211
CA 33.4034 1.93197 36.0389
CA 23.1301 -2.91451 48.6746
CA 2.10095 -16.5207 56.3158
CA 11.1379 -1.98256 75.505
CA -17.4453 -27.9585 27.5682
CA 15.5794 -3.43004 51.9649
CA 6.29969 20.7767 35.7229
CA 29.1548 -7.51843 64.8303
CA 8.55728 -2.60055 53.8187
CA 15.9731 -22.5767 72.3623
CA 9.92457 -15.6164 60.3286
CA 13.7314 16.4244 35.4873
CA 21.9685 -7.02624 62.6987
CA 20.4821 -15.0939 58.1777
CA 17.056 -7.3943 58.5159
CA 11.659 8.04409 44.4971
CA 33.5914 -7.10458 49.4802
CA 5.50262 12.7351 52.9723
CA 17.2609 -0.393375 45.7138
CA 10.6565 9.62834 50.8177
CA 16.3982 -6.97991 33.1134
CA 1.12277 2.16424 60.2991
CA 5.58277 19.3829 20.2835
CA -7.83723 -19.4225 33.894
CA 24.0181 -0.0738511 70.0403
CA 3.94887 1.5176 57.1675
CA 7.15641 -0.680253 39.5477
CA 28.6363 3.98519 36.6903
CA -6.0108 4.86147 42.0218
CA 3.64773 -2.53366 47.963
CA 14.1762 -18.3477 51.0477
CA 9.46995 -3.87007 48.5762
CA -0.705487 11.0431 42.2262
CA 19.9389 -10.7325 72.8682
CA -3.84016 -10.7424 69.1735
CA 7.21345 6.40336 33.9712
CA 5.56236 -15.0679 54.2101
CA 12.5401 18.3913 45.6671
CA 16.5816 0.521213 59.2295
CA -13.9284 29.0716 44.4583
CA 16.3411 -12.1992 58.0915
CA 13.7178 -14.48 53.9686
CA 7.65145 -6.01805 53.4547
CA 23.4543 -4.45679 70.617
CA -6.09857 6.44643 54.0041
CA -5.52275 10.33 52.6339
CA -16.2037 -28.2459 23.7863
CA 5.49248 16.1073 33.4478
CA -0.625573 -33.1546 33.4456
CA 17.5915 -13.7954 61.4921
CA 12.5149 21.5742 36.179
CA 12.5231 -0.380555 59.4724
CA 16.1569 19.03 16.5158
CA -14.6247 -22.829 41.0364
CA -39.5162 11.5296 51.5107
CA 8.90336 14.2134 36.552
CA 27.7785 -10.5808 52.9707
CA 20.9966 0.667369 62.1689
CA 20.6971 -4.41977 62.0417
CA -9.74653 4.66132 54.5271
CA -23.2369 -5.17867 27.8935
CA -0.625423 4.03247 54.0257
CA 12.8942 -16.4029 53.5012
CA 20.8231 -8.79348 67.1038
CA 25.94 -10.8201 57.5676
CA 14.8068 -2.02145 46.11
CA -0.999492 2.77388 63.298
CA -14.7148 4.45328 33.932
CA -2.92046 2.38352 34.5416
CA 15.5819 10.1434 17.6278
CA 3.48344 14.463 88.7229
CA 5.6982 7.97588 55.3516
CA 8.39387 15.8789 10.5503
CA 10.829 -2.58323 41.1871
CA 4.50433 15.4822 28.5573
CA -4.17861 -4.37722 43.9729
CA -29.7416 9.90469 53.2104
CA 0.966053 15.9789 86.2547
CA 22.2682 2.37084 48.6821
CA 21.1367 -9.48102 55.1446
CA -10.01 21.6601 39.5315
CA 1.64135 9.70725 41.5504
CA 43.8548 -11.9268 61.2607
CA -44.4272 14.5987 64.3664
CA 24.7799 3.92915 56.3149
CA 12.0485 -15.4187 63.3356
CA -31.8256 16.9937 51.6703
CA 7.4268 12.067 38.4147
CA 4.25521 -5.21966 37.0456
CA 6.62377 14.9969 24.6736
CA 18.4738 -13.4873 57.0366
CA 22.948 19.6175 36.5126
CA 6.2939 13.8148 38.2104
CA 18.7949 -2.41777 43.9577
CA 10.0063 2.8042 59.5543
CA 15.4866 -26.5232 70.7125
CA -4.36325 1.78899 32.0866
CA -18.7309 14.0072 49.0434
CA -17.6759 -26.1427 41.7532
CA 17.9562 -10.395 53.5839
CA 19.8886 -3.70794 38.8591
CA -19.8588 -6.40815 26.2595
CA 9.64113 -6.87288 40.3862
CA 28.5466 0.186265 28.3237
CA -19.8812 0.886994 39.2563
CA -14.1108 -28.572 23.8348
CA -6.1453 3.25465 43.2626
CA 11.5726 -3.99281 55.7889
CA 7.67792 -0.35835 36.8468
CA 8.77642 -0.179502 55.3675
CA -0.560505 1.84175 53.7661
CA 10.3315 15.0446 43.5741
CA -5.03696 24.0637 40.9252
CA 7.37828 -4.11682 54.3622
CA 17.6482 3.68348 66.4902
CA 1.63384 -8.03605 66.4907
CA 1.64291 9.1791 21.7514
CA 23.5521 -27.4945 62.7992
CA 1.96019 12.5786 43.2484
CA 6.61225 -2.5224 36.4581
CA -4.17482 15.2153 38.3997
CA 14.643 1.20693 40.2339
CA 17.5377 -3.04915 73.8804
CA 24.844 -11.8956 74.1712
CA 1.80216 21.9579 17.5235
CA 2.65159 13.8643 35.9345
CA 17.1947 -10.0119 60.0448
CA 5.80166 -0.548908 42.2794
CA 13.4285 -2.4897 55.2709
CA 23.8599 -0.165262 50.0208
CA 15.5197 9.01424 68.3546
CA -0.832774 -1.86774 65.8057
CA 7.65731 -9.23144 73.9557
CA 27.6412 1.13777 35.1135
CA -19.3817 31.061 38.9571
CA -7.71372 8.95853 53.6332
CA 25.5579 -1.9364 65.4438
CA 13.0424 -1.91185 44.7754
CA 19.776 -14.3568 54.8905
CA 9.74394 8.63812 57.6725
CA 8.3716 9.10064 53.315
CA -12.6135 -27.2004 24.9542
CA 20.2684 -17.9313 46.0762
CA -7.62474 -10.9404 71.9305
CA -12.3257 -21.0286 39.8735
CA 26.5891 -6.31575 48.3058
CA 41.4055 15.552 58.1583
CA -0.173086 18.6626 49.5581
CA -27.8537 16.5844 45.7353
CA 18.7028 -11.8928 55.2851
CA 1.51674 -1.78614 34.2991
CA -2.00154 1.70227 45.6954
CA -15.2773 29.8126 35.652
CA -35.5222 12.8877 64.759
CA 12.5059 -10.2334 37.7213
CA 29.1617 0.526217 30.159
CA 6.276 11.9449 22.4053
CA 10.353 -3.26855 39.0646
CA 13.6173 -20.7677 63.8952
CA 1.17373 10.8629 47.4292
CA 5.9312 -7.29816 75.1754
CA 29.3544 9.65214 38.1796
CA 23.2018 -30.28 67.5866
CA 26.3908 6.35234 38.982
CA 2.69044 -21.4268 35.5428
CA 13.4282 4.85391 56.814
CA 10.2937 27.4954 40.8097
CA 3.50283 -15.8859 47.1434
CA 4.52735 14.8131 18.3011
CA 6.61686 1.25033 34.2493
CA 32.861 -11.2812 68.0964
CA 14.6405 -6.47199 68.3493
CA 10.4684 0.830356 34.2919
CA 7.6259 7.32457 49.5302
CA 7.27449 -1.14819 65.3625
CA 24.9563 -6.88492 50.7111
CA -13.5339 31.6764 44.0955
CA -8.09019 -14.0881 36.5821
CA 2.59503 2.62332 53.8825
CA 4.7845 13.1357 22.1511
CA 41.3405 -13.6265 57.9743
CA 31.466 0.455454 59.51
CA 18.9848 7.5783 50.5976
CA -17.0768 -26.3219 22.9214
CA 30.9938 2.1288 61.793
CA 22.8067 -0.482819 76.2493
CA 21.0845 -9.9504 70.2553
CA -13.7237 -22.0316 38.1386
CA -0.32232 3.62789 59.2424
CA -13.9991 29.942 42.1483
CA -0.57963 -9.25638 68.3721
CA -15.6658 33.8707 42.8089
CA 17.8626 -6.98016 64.0274
