489

CA 17.5069 -11.8796 40.2305
CA 16.3341 -4.91775 85.6734
CA 10.8481 11.38 46.8605
CA 25.7238 7.11102 46.517
CA -0.170989 34.0529 46.958
CA 32.8713 11.0017 61.3023
CA 20.6862 -9.24722 53.3687
CA -1.3572 1.76901 54.2295
CA 8.51322 -23.8865 74.0382
CA 18.8877 -19.0754 81.6453
CA -6.52396 27.1799 44.1941
CA 7.44307 6.4866 57.6588
CA 7.37458 30.1279 52.8496
CA 6.00635 7.38795 66.8834
CA 26.1042 9.80954 45.5588
CA 9.79071 -3.12007 35.6455
CA 29.7288 14.0668 43.4194
CA -2.27188 31.5111 45.1628
CA 13.4753 -3.74513 52.1245
CA 6.94311 8.65412 72.9351
CA 2.86132 32.8957 46.2047
CA 29.2497 24.2623 57.8058
CA 29.4452 -3.45394 69.3345
CA 17.6448 -11.6779 66.8972
CA 1.66681 -15.2211 43.9242
CA 19.9122 13.6965 62.1673
CA 23.5756 6.0791 68.1654
CA 19.1423 -7.68846 83.3481
CA 12.4884 -6.35799 50.1379
CA 5.27652 -18.2892 54.2504
CA 5.69257 -2.22406 76.8115
CA -2.09138 17.1094 43.1967
CA 40.461 -14.1007 52.9712
CA 4.22997 13.752 41.3358
CA -2.74314 0.611526 56.3574
CA -5.93842 16.474 60.7184
CA 10.2719 4.73965 43.6342
CA 31.7021 10.5941 46.4887
CA 32.9187 -3.07202 51.2347
CA 28.6753 -7.37012 69.8064
CA 11.1192 -1.86543 74.6007
CA 14.8286 26.256 57.3437
CA 7.88868 3.29556 45.3361
CA 15.4205 28.5118 60.2601
CA 2.13522 31.7903 44.1338
CA 29.2659 17.9054 65.2883
CA 33.5693 26.1387 46.7803
CA 9.36712 -3.91461 32.0035
CA 4.02585 29.4394 44.2347
CA 34.7359 -3.16437 55.2485
CA 24.855 -19.831 74.8678
CA 16.3391 -8.44881 40.054
CA 23.9369 22.1022 46.2023
CA 25.0562 -13.4602 78.1868
CA 7.43244 24.4059 50.4042
CA 15.119 -6.67294 51.2029
CA 18.4187 -13.7019 42.7577
CA 25.6446 -3.52278 68.9915
CA 33.059 -2.03239 57.3244
CA 17.4347 5.95579 50.2237
CA 6.42217 29.0337 51.2578
CA 5.24443 -18.5853 66.61
CA 12.3158 35.7354 53.9042
CA 9.4024 2.07341 59.9367
CA 12.1462 26.5298 55.722
CA 1.58387 -3.29038 45.6295
CA 14.3098 6.91944 50.4678
CA 9.91442 -8.62437 50.5808
CA 24.3246 33.195 60.2602
CA -4.87162 25.9831 47.4601
CA 29.5872 1.01659 58.0705
CA 28.6615 19.2097 54.0997
CA 21.4897 -7.70134 51.9909
CA 31.9213 18.6043 40.3005
CA 22.6975 2.4743 57.6385
CA 1.81145 -5.88986 34.0809
CA 15.7302 -14.181 54.5918
CA 14.7078 -9.16941 36.0923
CA -5.18471 9.07027 66.9799
CA 23.8914 15.5593 69.3412
CA 9.82167 28.4524 52.0447
CA 1.25613 12.869 66.1371
CA -0.697037 20.4414 42.5356
CA 28.2111 8.58947 42.6342
CA 7.40766 5.43301 43.6483
CA 27.4372 11.3839 45.4011
CA 3.63587 -16.4931 85.999
CA 22.1617 33.9343 64.8683
CA 28.0654 -5.73393 65.8993
CA 31.1586 0.332962 65.7571
CA 19.1505 0.652465 56.1856
CA 8.56798 6.74078 62.2852
CA 8.93465 1.18677 56.9244
CA -0.794882 12.6453 55.1931
CA 33.7509 31.2126 18.1178
CA 12.8581 -14.5269 43.5034
CA 1.86983 32.6754 41.3793
CA 0.645438 -25.8817 53.8976
CA 15.6447 3.76699 60.9242
CA 19.2511 -2.42471 63.9181
CA 7.19347 -15.8771 57.0172
CA 30.6634 10.9296 56.7234
CA 40.4852 -1.45028 56.7657
CA 29.5289 12.638 45.5181
CA 7.34665 -5.73098 32.8428
CA 15.6029 -13.254 42.1712
CA 32.9521 9.93518 44.5464
CA -0.497773 15.6813 71.9943
CA 12.6482 -21.44 72.5422
CA 36.2216 -1.43229 55.0554
CA 17.5938 -15.3338 44.1801
CA 9.07861 -21.5464 67.971
CA 32.287 1.97633 58.772
CA 17.1428 -4.93787 58.8352
CA 11.9749 -12.9838 53.3283
CA 9.98039 -19.5056 67.807
CA 26.3016 21.8254 65.4509
CA 32.0111 31.3689 55.297
CA 2.86605 -5.2689 78.4888
CA 10.1608 11.4167 74.8499
CA 13.1178 35.5798 50.6467
CA 3.8425 -25.8137 52.5159
CA 10.6762 -1.7072 72.3444
CA 9.63308 20.9191 51.9122
CA 20.0687 -1.58958 79.6674
CA 35.3796 -2.92669 50.2683
CA 9.20684 8.74635 55.3314
CA 6.89112 7.42234 52.7368
CA 16.3543 -13.9392 57.5112
CA 4.24787 -20.9134 69.7957
CA 24.4216 -0.356189 69.2113
CA 30.2728 18.365 68.1008
CA 23.0337 0.312494 36.6395
CA 7.80838 -18.7347 38.0324
CA 10.3823 3.2287 50.0533
CA 30.6126 0.223811 54.0588
CA 23.3301 -11.5212 85.276
CA 23.7034 2.71026 59.3246
CA 28.633 8.95912 67.0626
CA 25.0984 1.47982 58.6577
CA -8.46225 -27.5034 65.5302
CA 22.2252 -9.31958 78.8128
CA -5.79746 13.6289 74.6086
CA 20.1184 -4.72298 64.1507
CA 7.34188 27.3114 51.7919
CA 55.7378 11.1919 45.0184
CA 11.3541 -0.450396 76.4505
CA 9.20477 -5.4495 36.0326
CA 14.8817 -9.75802 86.3819
CA 26.3186 6.05889 52.4242
CA 17.8519 -3.77251 57.4019
CA -4.30993 13.1655 75.6507
CA 23.462 -7.8206 69.1755
CA 22.9871 19.7228 41.8634
CA 12.6052 0.169949 68.6542
CA 14.7596 -7.83662 86.556
CA 28.9367 4.41634 50.0226
CA 0.804771 -0.989295 49.0658
CA 0.0992039 33.0885 39.4714
CA 5.10075 6.38018 54.3069
CA 20.5496 1.15098 38.7872
CA 16.1226 -17.5685 41.7221
CA 24.3345 24.257 52.3287
CA 21.7498 14.3254 63.4572
CA 37.6524 7.85516 49.6836
CA 26.7887 15.4455 60.375
CA 22.2067 29.9762 59.1473
CA 16.2306 -16.1415 40.2139
CA 32.4695 -5.05941 57.3783
CA 20.4412 -4.52273 49.701
CA 15.0338 -14.58 43.8282
CA 7.29006 26.487 55.4927
CA 23.7295 33.4133 64.0888
CA 25.5132 16.8391 68.3394
CA 8.31114 0.773759 74.5212
CA 21.8027 -5.37105 50.5555
CA 15.7555 -11.7331 53.72
CA 18.495 29.2793 48.9902
CA 16.7966 -8.67408 82.8697
CA 19.512 7.88755 48.0759
CA 3.38717 17.4012 56.7161
CA 8.24118 -2.32262 75.7559
CA 2.43501 -4.10608 40.5921
CA 28.576 13.843 67.285
CA -5.85398 11.0921 71.5532
CA 19.0664 -1.26962 54.3355
CA 16.544 28.116 44.6537
CA 23.3125 5.19415 47.3013
CA 30.444 -7.08222 67.5946
CA 24.2684 -14.1579 67.9737
CA -27.2145 31.3089 48.0691
CA 8.07113 11.1072 56.348
CA 7.83153 -15.3985 55.3546
CA 25.1952 -12.7338 74.591
CA 25.6024 -11.3333 57.6754
CA 12.1334 24.6367 30.4
CA 4.66373 -6.7487 34.5848
CA 26.8913 14.0518 62.5944
CA 3.74148 13.4692 64.6051
CA 0.877516 7.4319 70.6129
CA 14.5987 -3.45045 54.9755
CA 12.6475 16.0481 56.3602
CA 12.2003 -7.28292 34.7988
CA 15.739 1.68098 75.1802
CA 12.3492 -16.725 37.3294
CA 4.84331 -23.7108 70.6085
CA 25.4475 9.59571 47.5796
CA 25.2999 6.41663 56.6255
CA 25.8854 15.4541 64.9922
CA 19.9003 -5.08474 71.7183
CA 17.1761 22.0337 52.709
CA 14.6272 3.8877 55.5243
CA 6.30366 13.6265 44.3376
CA 28.3107 32.155 63.9705
CA 3.13773 -9.55614 31.179
CA 35.0465 -0.868957 53.6953
CA 7.23321 7.88017 61.6745
CA 20.0025 26.1106 57.7865
CA 26.898 4.55148 62.8938
CA 10.0122 0.936969 69.1187
CA 13.4335 3.41128 46.0038
CA 10.4927 14.8252 58.7703
CA 21.1527 9.82164 51.5514
CA 16.5668 -17.7634 44.8516
CA 10.3066 27.9406 57.6581
CA 16.2506 17.2136 13.0756
CA 2.68637 1.81582 75.5564
CA 15.114 10.61 55.8386
CA 15.4341 -3.92375 53.3741
CA 37.3228 -7.58393 53.131
CA 34.9668 -4.71567 54.0735
CA 4.10848 17.8943 47.407
CA 19.3744 30.4842 55.7723
CA 12.6044 1.76663 49.0429
CA 29.7643 5.84278 59.0694
CA 22.5743 0.689716 40.6422
CA 28.8835 -11.48 59.9444
CA 15.5649 3.12798 76.5995
CA 15.5255 26.8438 49.1975
CA 8.05375 9.09322 46.5664
CA -7.20912 -13.4092 70.2469
CA 16.7379 -10.1521 84.1213
CA 23.3859 -5.9474 66.2587
CA 4.38406 -20.6855 52.8603
CA 29.2609 3.52511 58.218
CA 20.7671 27.732 17.9671
CA 4.44091 36.4132 44.8056
CA 28.9904 15.6868 41.8599
CA -21.0864 26.1337 40.3
CA 12.9374 -26.0186 38.8769
CA 20.6151 5.33523 34.9554
CA 11.183 37.6441 53.6161
CA 28.2459 33.9262 56.4755
CA 12.9658 -3.6084 44.5497
CA 32.5218 -1.05359 52.149
CA 19.7402 4.89515 43.0988
CA 17.6566 -1.17107 58.5992
CA 3.58766 18.0794 51.9351
CA 3.81478 1.09854 33.85
CA 25.7392 32.1155 66.6459
CA 18.4422 24.9295 50.8301
CA 5.8516 -3.97773 33.9163
CA 3.82704 9.22463 67.0542
CA 12.4943 -0.903294 45.8896
CA 30.1983 9.54971 46.7946
CA 26.8159 5.52367 48.4182
CA 15.5094 32.4706 50.0977
CA 0.392359 8.73081 69.2751
CA 11.9146 8.71754 48.5346
CA 12.0329 14.4262 56.8791
CA 10.3525 -23.7623 70.8969
CA -1.19354 29.2459 43.835
CA 36.876 -1.29049 59.6601
CA 6.98022 21.5085 51.8599
CA -6.96262 22.8912 49.4665
CA 13.9122 -6.84799 82.8718
CA 17.4053 1.46786 79.3095
CA 27.852 24.1283 51.9721
CA 25.2059 30.123 64.6494
CA 19.3609 -9.83515 36.8885
CA -9.39719 15.8845 60.2731
CA 16.2089 30.7563 49.843
CA 5.014 34.6385 45.3472
CA -5.38634 -13.0314 46.0331
CA 10.0434 -20.2477 52.9564
CA 8.56227 -0.117389 59.4203
CA 30.818 -5.68065 57.8086
CA 15.6308 13.9435 56.1577
CA 19.8865 -9.67752 41.2321
CA 33.5794 20.5152 50.263
CA 16.2726 4.10724 52.2469
CA 13.2821 -10.5865 85.2759
CA 4.8744 4.00647 60.2764
CA 16.4992 -4.22357 80.9101
CA -3.96721 11.1182 75.55
CA 16.7145 12.3913 55.3271
CA 10.1352 -5.81603 33.6845
CA 24.743 -5.78507 71.0789
CA 26.5659 3.50839 47.2151
CA 18.9527 -17.2812 79.7394
CA 11.9145 -15.0531 41.0659
CA 1.90065 -6.10156 45.6141
CA 17.2654 18.0933 17.068
CA 11.6866 2.40377 43.8273
CA -0.386878 10.0645 72.5403
CA 0.968184 -0.779395 58.624
CA 27.097 14.9061 41.8264
CA 30.0081 12.7448 64.304
CA 9.25021 9.84273 49.2616
CA 12.0326 7.42417 45.6904
CA -0.60576 12.876 64.275
CA 18.3935 8.08498 51.9336
CA 25.1196 -14.2235 73.2491
CA 11.0417 0.706295 51.6599
CA 20.857 -1.07827 64.3823
CA 11.2691 2.97163 56.1337
CA -0.272807 27.6066 52.745
CA -2.1045 -27.0796 53.9514
CA 23.3568 21.7503 61.6119
CA 16.6804 2.13128 40.6039
CA 8.21874 -1.86071 74.0109
CA 7.69166 -20.6638 51.0587
CA 17.3193 5.7808 44.9437
CA 0.491856 31.4313 46.8772
CA 11.3573 2.57646 60.172
CA 15.2579 -13.0758 68.5911
CA 15.7221 18.1662 54.7406
CA 18.8655 -13.0934 47.6957
CA 7.26601 9.16422 51.6303
CA 13.6648 19.2863 54.0733
CA 5.69004 1.06012 34.5189
CA 26.6982 13.411 47.6073
CA -0.784912 11.5375 44.5112
CA 25.3146 1.13443 35.2729
CA 11.5009 -21.0051 77.6077
CA 20.1815 5.50828 45.3431
CA 23.8315 -5.06013 63.7456
CA 8.72613 7.27551 42.9534
CA 14.5879 -6.15229 44.3175
CA 21.5548 -16.8555 64.0446
CA 19.1358 19.5482 16.9117
CA 21.0907 2.2441 60.8125
CA 7.83211 -15.9288 41.6747
CA -2.78446 29.7547 46.4584
CA 18.2535 -17.6923 59.0802
CA 18.1704 13.5485 56.0107
CA 5.84688 3.04693 46.9315
CA -3.39161 13.0646 66.0196
CA 17.138 -13.4764 82.4343
CA 5.07682 -3.32417 38.071
CA 25.7957 15.0386 66.8675
CA 18.096 -3.16722 59.6315
CA 26.373 19.2527 47.5116
CA 16.426 27.5637 52.5552
CA 28.4616 8.99772 45.5436
CA 3.09381 -24.3553 88.6978
CA 23.3112 14.3915 67.5144
CA 18.0661 2.07875 57.0865
CA 20.7475 1.9018 58.6834
CA 29.1292 2.55346 61.0607
CA 11.5511 23.0992 51.9328
CA 20.5293 -10.1319 50.1782
CA 9.36554 11.9338 58.5379
CA 21.3913 -7.92269 76.4231
CA 7.4937 13.0233 55.1033
CA 4.19254 13.2519 57.1054
CA 2.63074 34.7059 43.6928
CA 6.53933 -8.17359 47.8931
CA 5.16927 -19.5005 86.8474
CA -7.17267 11.1304 62.8349
CA 8.9977 -1.09368 47.6936
CA 27.4274 29.6355 68.4105
CA 23.3768 -8.98133 81.5155
CA 27.8473 8.31065 48.8113
CA 8.83253 23.7463 52.0412
CA 38.986 -12.554 54.5119
CA 15.3232 -15.0279 81.8139
CA 23.5043 7.41246 71.7464
CA 17.8442 -2.58973 79.0689
CA -3.36365 28.7057 47.87
CA 25.2452 6.16941 69.8628
CA 30.381 16.2048 39.334
CA 27.3423 9.191 54.3387
CA 19.7082 8.51609 50.2957
CA 6.34624 -19.7004 39.9179
CA 32.0019 20.1221 67.2309
CA 24.0178 6.40142 38.3217
CA 13.423 6.42037 68.1855
CA 3.6344 27.7775 40.9179
CA 13.355 -5.41198 55.0456
CA 8.2548 10.8547 51.4067
CA 9.10483 -4.74574 73.3834
CA 21.8221 3.83978 40.0055
CA 28.8376 33.578 61.2664
CA 32.0287 -4.57502 60.1669
CA 31.4497 3.46683 52.4141
CA 22.9242 -3.8714 68.1443
CA 7.40996 -0.327379 76.1458
CA 13.6503 33.4686 53.7522
CA 15.2776 -15.6313 64.657
CA 1.45026 -28.8138 49.2187
CA 10.5644 27.3043 54.5746
CA 20.0859 2.92844 39.4151
CA 10.6511 6.94406 53.5288
CA 4.7045 30.6661 42.2834
CA -6.78081 30.9435 46.2631
CA 3.32936 13.2028 49.6209
CA 19.811 -11.5826 77.3327
CA 27.714 4.39972 52.3589
CA 18.6056 -17.7969 77.9684
CA 6.80456 -19.8307 87.7727
CA 28.0716 21.8302 49.0319
CA 16.7396 -1.68026 51.7213
CA 4.86714 -11.3125 45.2446
CA 4.9741 -4.19138 72.9482
CA 28.0791 9.45102 70.0025
CA 26.6068 -11.0937 78.7933
CA 4.83105 9.84255 56.2817
CA 18.8562 -11.3126 80.7235
CA 17.031 -15.5454 46.4418
CA 16.7565 -3.79139 51.498
CA 26.2708 8.17362 43.6802
CA 14.2816 39.2226 54.7927
CA 31.0337 29.4878 20.6085
CA 22.7792 21.8297 44.4954
CA 15.0839 5.9117 62.9367
CA -15.2459 25.4262 38.4264
CA 16.682 -15.0298 67.7586
CA 13.7578 -18.233 75.1174
CA 28.0432 11.2587 69.4961
CA 16.898 23.815 53.4881
CA -25.0128 27.3977 38.1714
CA 9.15399 6.37332 55.1916
CA 22.8093 4.13556 68.5012
CA 12.3406 -5.60499 60.6451
CA 29.3173 1.77048 54.6373
CA 15.6998 7.2381 58.783
CA 25.1688 31.7743 61.4807
CA 7.01635 -2.42123 45.8019
CA 20.237 18.5295 18.1594
CA 36.6332 7.95925 48.0319
CA 5.58325 -21.4231 86.1004
CA -4.03209 -16.2867 45.5112
CA 16.9662 -16.2422 65.1328
CA 31.1953 5.7161 44.0692
CA 12.517 36.6882 52.2633
CA -13.9655 22.9335 39.9488
CA 28.3162 7.20592 50.5479
CA 11.9936 12.0607 43.7352
CA 23.0839 32.2007 58.5162
CA 16.3216 -17.9551 67.8221
CA 6.48884 10.4977 68.9011
CA 2.97162 1.6902 61.5299
CA 15.416 -4.82805 49.0576
CA 29.753 7.40727 45.5856
CA 17.827 -16.281 82.0946
CA 13.0422 6.76251 54.0158
CA 14.0642 -16.5279 41.4267
CA 20.6694 -13.9273 57.1928
CA 22.8318 -9.3645 52.0204
CA 20.9055 -21.4919 78.9412
CA 6.09149 -25.5882 70.9387
CA 12.2979 0.82999 38.9522
CA 21.0114 2.82278 37.5061
CA 17.3627 6.33512 43.1338
CA 14.2251 -12.9144 57.5919
CA 31.9678 0.715154 62.8445
CA 17.7995 26.3617 53.597
CA 28.1992 21.6151 67.7952
CA 25.6096 18.7323 41.1902
CA 20.2406 0.985594 36.5471
CA 30.0044 1.33247 64.425
CA 25.1892 22.2975 44.1723
CA 8.90498 -4.98023 40.7464
CA 36.7173 -3.83102 56.835
CA 30.5451 25.0723 59.5852
CA -0.789826 -1.59421 74.9023
CA 23.6827 28.9039 57.3458
CA 4.98529 -4.343 74.8157
CA 28.7092 9.19663 64.0638
CA 21.4424 -7.47761 70.4191
CA -1.79164 12.5633 75.8796
CA 30.7626 9.43064 67.7846
CA 6.53057 15.5445 40.1864
CA 12.505 7.26597 66.5782
CA 18.915 -15.3739 52.5749
CA 26.2436 20.3296 40.0286
CA 10.4777 -1.42189 44.3845
CA 23.927 -10.0084 61.7616
