489

CA 16.8573 -37.1677 43.7594
CA -0.925733 26.673 42.9676
CA -7.58056 -14.2228 24.9338
CA 25.5874 23.3118 58.783
CA 26.4321 -6.03813 46.1896
CA -17.279 -12.0877 61.5054
CA -18.6144 14.959 50.8224
CA 7.14873 -21.9347 77.8701
CA -18.1479 -18.2172 57.7741
CA 10.646 -23.9082 65.1847
CA 3.25094 38.1071 59.0832
CA 20.9497 5.36219 45.8623
CA 18.1937 -25.1002 78.0146
CA 26.8517 20.9263 34.9096
CA 21.8625 13.5642 29.418
CA 13.7533 -10.2307 60.0726
CA -6.35519 -12.0665 28.0684
CA -10.1378 25.7091 49.0887
CA -13.2474 12.2967 21.3368
CA -8.75394 3.88689 86.6581
CA -7.96047 -3.78281 55.0386
CA 8.79327 -15.8913 40.4826
CA -12.9561 1.08351 44.2315
CA 23.6546 4.39104 23.9338
CA 7.35609 0.466198 63.2146
CA -8.86184 6.49804 67.2874
CA 4.66592 -39.6219 57.8838
CA 12.8835 -1.57831 25.5908
CA 3.84549 -14.4116 38.2426
CA -2.89334 4.62951 85.1097
CA 26.2094 10.5846 50.0179
CA 28.28 3.44635 51.3126
CA 0.467792 -31.0315 26.1975
CA 20.7055 -1.8511 58.5183
CA 17.7549 21.0816 58.1223
CA 16.4673 -31.0981 74.5814
CA -9.66312 3.99894 64.6237
CA 16.8257 -30.6904 78.3151
CA 17.9223 -26.7376 75.1197
CA 4.03686 7.50293 71.6907
CA 16.1338 -29.1262 76.675
CA 8.94947 -16.9282 37.9592
CA -8.15707 -10.1573 23.3045
CA 14.1745 15.6342 55.4595
CA 10.968 20.7547 53.8451
CA 3.85272 22.7776 48.2849
CA -11.1224 -20.9861 52.9104
CA 20.2815 -20.3814 52.0765
CA 5.93787 -16.7188 40.8032
CA -16.0563 -7.69088 56.7656
CA -16.9842 -14.0245 20.1926
CA 24.3412 17.9054 30.3203
CA -27.9761 9.19182 41.5295
CA 19.1736 15.9482 44.7342
CA -4.23065 4.12602 22.1814
CA 22.6068 -16.6876 25.0898
CA 18.3469 -22.7253 74.5788
CA -16.8567 0.621129 45.9037
CA 4.87992 -7.44102 47.0907
CA 7.1755 -22.6861 69.3361
CA 0.314607 34.9824 36.9711
CA 18.4609 7.17659 23.5748
CA 25.624 21.2728 26.6535
CA -24.1693 27.3086 65.9379
CA 42.6411 6.24963 49.5045
CA 9.74358 17.3991 49.1351
CA 32.079 0.805439 60.0978
CA -24.2981 32.193 68.7703
CA -20.9432 -1.56273 53.3875
CA -31.612 0.273739 70.9335
CA 28.1035 8.2252 25.7744
CA 4.18976 -6.09015 33.1301
CA 20.7796 -1.49871 67.2615
CA 50.8626 3.69035 49.4295
CA 15.2968 -28.0178 44.4974
CA -15.4329 -13.2529 18.9261
CA 9.05227 -21.3221 68.9126
CA 24.2384 12.3834 53.8847
CA -1.25879 -33.9396 60.9202
CA -5.3118 4.49188 38.2138
CA -25.3084 15.4816 33.2251
CA 12.9152 11.0696 72.289
CA 29.3641 -2.97824 62.2957
CA -34.7878 1.44551 58.9045
CA 0.772429 31.5984 70.4786
CA -4.36431 21.7561 66.4481
CA 5.0438 -35.7175 59.9118
CA 17.9273 32.8223 63.4894
CA -29.2863 8.3899 38.9481
CA 4.44467 9.05988 72.9129
CA 9.73983 -22.3553 74.0334
CA 32.3437 1.38553 56.5769
CA 18.1198 -4.78615 72.5085
CA -12.8985 -25.9139 72.8626
CA 15.8446 -5.80468 67.2596
CA 15.6928 0.246339 67.6686
CA 32.3502 14.7889 29.4795
CA 20.0805 -5.03244 64.2303
CA -35.1576 -1.61104 67.1446
CA 18.9948 0.463654 67.9143
CA 7.93388 18.9597 53.7175
CA 6.20816 -20.8609 72.0689
CA -9.09649 -9.99225 21.1813
CA -10.6529 3.00742 97.6045
CA 3.56394 -28.7807 27.1557
CA -11.2153 -20.6003 74.1556
CA 8.49546 -23.1861 79.7303
CA -6.27359 2.11473 68.874
CA 9.21947 -13.8743 73.3506
CA -3.12345 12.3903 25.7275
CA -22.0044 11.8439 69.6221
CA -1.08817 29.0163 68.9202
CA -0.105686 -16.2939 39.8593
CA 18.2552 -7.35263 73.1209
CA 20.7233 -30.4447 76.2326
CA 13.3056 17.2229 47.9668
CA 24.368 7.00989 48.6024
CA 4.46493 -2.10459 31.3091
CA -21.9423 21.2225 33.8734
CA 8.62655 -17.8209 71.6743
CA -10.5549 7.9173 82.8087
CA 21.5452 17.5106 44.0987
CA 18.0669 -31.8748 42.0665
CA 26.4296 -10.3645 59.1928
CA 17.4951 -11.6554 31.6399
CA 32.4653 0.161438 62.8789
CA 14.4122 -18.2455 81.0608
CA 23.0471 23.1925 23.6728
CA 2.8527 13.8163 22.9704
CA 17.312 -21.4618 71.1214
CA 2.3677 -2.23429 34.5582
CA 11.7839 -3.10549 20.1076
CA 11.8981 -9.93776 85.5287
CA 19.9393 3.25479 61.5396
CA 27.3653 -0.176707 67.3994
CA 10.1139 -19.0205 72.6237
CA 9.29304 1.1482 62.6788
CA 20.3535 23.2879 61.6776
CA -4.11356 18.8703 68.7031
CA 16.4089 -6.39085 76.6163
CA 15.4576 32.1678 66.3301
CA -2.16378 -11.0763 18.9686
CA 0.00322209 -9.10147 69.7552
CA 5.94908 -37.8594 59.519
CA -26.2107 11.7466 34.9375
CA -34.6183 0.0778953 54.9945
CA 7.42068 -9.8096 82.6228
CA -13.4503 17.9175 23.2681
CA 28.196 -12.6132 55.5485
CA -1.86369 23.1757 63.515
CA 10.6562 -20.4095 67.7859
CA 16.7446 -13.6956 28.083
CA 15.5499 -1.38133 68.9459
CA 28.4441 -8.04526 53.2299
CA 8.18897 -9.34222 19.9965
CA 10.6095 32.8508 34.7021
CA -6.78445 -17.4698 25.6577
CA 22.2514 3.62813 59.8979
CA 6.09889 -9.75166 21.0758
CA -18.0727 -1.6558 43.606
CA 17.217 1.26149 83.5632
CA 12.2042 -20.9348 71.0999
CA 17.4985 17.1887 60.8105
CA -21.673 -5.84935 55.5856
CA -5.69226 -5.58234 56.2672
CA 18.2956 -25.1315 64.9724
CA 14.962 0.670102 65.3862
CA 15.9453 -32.2929 42.3842
CA 20.9134 -29.1911 64.747
CA 16.0702 5.26947 18.8489
CA 9.77379 -14.9428 22.9569
CA -7.33674 32.8679 45.7841
CA 22.9038 3.20207 21.8869
CA 11.663 19.6912 40.0107
CA 9.91029 -10.402 73.1284
CA 29.0909 3.66536 64.5264
CA 19.0533 12.673 35.2017
CA 10.3101 -17.9445 80.2151
CA -10.8898 5.87185 94.8016
CA -0.533298 26.0111 75.1564
CA 26.5283 22.3821 29.8651
CA 3.67857 12.1439 24.2969
CA -24.2045 14.0623 35.9231
CA -23.7164 -18.0636 41.2305
CA -1.91804 0.877443 19.9172
CA -7.77797 26.7539 65.911
CA 12.5435 -22.0481 80.9693
CA 10.6041 -6.4997 14.5027
CA 4.81555 9.48595 69.2462
CA -0.57502 15.6358 40.5859
CA -18.2104 -31.6496 70.0975
CA -19.9022 -17.7505 57.8063
CA -11.7841 4.90755 71.7287
CA 15.5655 -0.912657 62.7448
CA -31.243 1.21218 64.3631
CA -15.8622 -8.63861 58.4171
CA 12.261 -9.29095 57.0487
CA 15.1775 -4.62793 55.0109
CA -5.95215 33.5316 35.5501
CA -0.373861 -18.668 38.5317
CA 9.97781 17.0207 36.5149
CA -31.8914 -7.88537 34.3673
CA 7.64827 -22.5268 72.4584
CA 13.7485 -3.78959 20.0859
CA 16.2853 -25.7812 76.2502
CA 22.4928 0.679138 68.7045
CA 19.2466 -28.2463 77.3939
CA 9.08102 16.3433 52.9597
CA -25.8132 20.4358 32.42
CA 12.6212 -1.0842 69.668
CA 9.43442 20.4607 39.0311
CA 9.93088 20.0876 37.0712
CA 3.82824 26.4119 79.5206
CA 21.8994 -22.4246 52.5931
CA 13.1511 8.2311 16.8476
CA 0.166239 23.4403 66.4278
CA -19.0691 1.63987 73.7425
CA 9.7537 -0.519262 59.3218
CA 7.88368 -7.48941 57.1216
CA 49.5371 8.93567 49.5671
CA 9.18061 -8.24244 15.2978
CA -31.7746 2.20477 38.168
CA -16.6634 -5.53154 50.716
CA 11.2523 16.6424 52.0213
CA -9.78837 3.38541 71.4939
CA 6.34637 -8.92823 40.0434
CA 18.5389 -27.2815 60.5705
CA -3.62794 -5.32557 26.0022
CA -6.58469 -10.0973 24.5083
CA 11.9091 -4.93403 74.9614
CA 8.18278 3.64929 80.9282
CA 1.80662 -12.2516 67.0841
CA 29.1329 18.8717 30.3171
CA -3.91264 16.4469 68.833
CA 14.49 1.29065 19.2405
CA 3.42065 -43.0655 71.1566
CA 2.07866 21.2196 45.7483
CA 10.9933 -17.6033 74.9501
CA 23.9961 -6.35236 59.2791
CA 6.11188 2.29021 61.5225
CA 23.1327 -25.7817 55.9475
CA -3.96931 27.6276 67.9186
CA -17.1222 -27.3351 68.1839
CA 23.4768 15.2992 62.9956
CA 5.68388 -10.896 68.2677
CA 7.20702 4.42322 61.0143
CA 7.10984 23.6954 53.6143
CA 33.2426 -3.10633 56.2869
CA -10.1254 -10.3152 19.6934
CA -2.85147 26.004 68.7488
CA -12.753 -15.0508 71.6462
CA 6.98899 -37.969 61.0712
CA -15.823 21.0549 45.9153
CA -11.0168 13.3089 68.8186
CA 5.25022 8.54225 75.6573
CA 16.8701 -29.677 65.855
CA 3.33 39.7474 61.0998
CA 19.6935 0.576325 55.0597
CA 21.823 16.1584 56.0989
CA 2.37588 -20.0475 69.3597
CA 8.8737 -9.19468 22.6026
CA 28.3817 0.0680432 64.8204
CA -2.51798 3.5108 22.3933
CA 8.37113 -19.7378 79.6527
CA 2.22442 22.646 66.7371
CA -21.348 5.05623 39.945
CA 24.8334 7.02776 45.5454
CA -5.54445 -31.3238 64.1496
CA 22.5307 -23.8201 58.1323
CA 24.2423 20.0843 26.6041
CA -0.414793 25.1361 66.9788
CA -16.5095 -17.7067 53.3046
CA 18.4101 -32.7754 76.6217
CA -1.28453 -3.94647 47.5829
CA 27.4982 -5.89816 60.52
CA -0.64615 -4.94785 21.5331
CA 22.688 -3.25041 20.4807
CA -13.3642 -27.0711 32.7123
CA 8.52799 7.198 61.4937
CA -22.4955 1.90516 74.1716
CA -7.14063 -12.5249 23.3305
CA 14.3072 -21.6009 83.391
CA 1.72861 -37.143 60.3807
CA 9.66439 -13.0081 82.4553
CA 17.097 -9.9031 69.9328
CA 15.5471 -4.36472 81.8769
CA -5.35006 24.509 65.3315
CA 3.76828 -17.982 41.5467
CA 1.70188 7.23171 72.7689
CA -5.55329 -2.06434 69.4304
CA 0.269608 -9.87999 67.4453
CA -28.2875 15.1249 54.416
CA 19.3264 0.0256745 63.3294
CA 20.8133 16.5478 45.5976
CA 1.87367 -6.24753 77.5826
CA 20.3812 0.655637 65.993
CA -0.756525 -30.1307 63.5024
CA 30.3914 -0.123105 63.7674
CA 21.2226 -30.2564 44.0799
CA 20.387 18.957 47.2348
CA 23.4743 -2.18789 64.8655
CA 5.14138 -19.8537 66.8162
CA 8.69568 7.45223 65.8925
CA 6.59729 -34.8782 69.2428
CA -18.6463 -3.55196 51.7713
CA -21.4503 29.778 69.1409
CA 22.7512 -8.5587 58.5078
CA -34.8198 6.05543 65.5959
CA 9.54549 -26.1368 73.0119
CA 18.0014 -9.67131 64.3175
CA -9.16597 -19.0168 54.849
CA 24.5295 20.8315 30.3362
CA 3.84106 -3.34948 75.2725
CA 26.883 -2.04443 52.603
CA 38.8271 7.4589 51.7651
CA -2.51159 -4.94461 21.7619
CA 14.2514 -5.38909 76.0446
CA 17.9592 9.46339 20.6686
CA 25.1567 -6.55573 51.7425
CA 16.5029 -1.26362 72.8569
CA -17.0515 -27.1738 34.9909
CA 13.1002 -9.5751 70.2566
CA 14.8907 1.49895 57.4583
CA 19.8926 -8.59556 36.5847
CA 18.3018 17.0393 48.3371
CA -34.2722 -6.493 37.6918
CA 15.7012 -25.3527 71.9435
CA 53.2373 6.82851 50.5508
CA 7.36261 -16.6724 77.2643
CA -8.15663 30.0225 67.8424
CA -19.4208 5.6132 42.315
CA -8.15104 7.84574 94.5284
CA 27.2511 6.24171 26.1771
CA 20.3488 -7.86738 30.9918
CA 3.04025 23.7944 49.9403
CA -5.16421 6.29438 39.3549
CA 14.4683 18.4141 58.902
CA -16.5254 -30.0794 73.3753
CA 9.01823 -2.10446 63.5937
CA -27.8377 19.4649 31.6179
CA -3.77581 34.7061 39.0389
CA -3.72994 30.9885 67.5422
CA 15.7193 -31.5509 46.5013
CA 5.29155 25.1344 78.5406
CA 13.0128 -20.1184 82.4963
CA 8.43114 1.95881 61.1314
CA -6.85286 8.43414 67.6317
CA 2.88453 10.4972 75.1106
CA 23.3731 6.90572 46.7577
CA 16.1596 -26.4788 80.2566
CA 7.37073 22.6113 39.8044
CA 9.98388 -5.04468 53.3619
CA 21.278 21.3591 33.3145
CA 14.4514 -29.4557 45.4153
CA 26.9286 -4.02214 62.6444
CA 13.3666 -8.95189 54.119
CA 8.99243 -15.3076 84.991
CA 19.9592 -1.4535 65.0101
CA 2.91938 15.1581 18.7176
CA 0.155484 20.5221 77.1985
CA -8.86259 -29.606 73.2255
CA 0.92322 -3.43686 46.6493
CA -22.1558 15.1887 34.1944
CA 4.16092 -16.4688 80.1935
CA -4.266 33.9092 55.2683
CA 1.30776 40.1064 62.0002
CA 13.5544 -8.18728 73.5817
CA 2.22617 -8.95897 66.4839
CA -42.294 2.2788 46.3338
CA 20.1971 -22.2448 70.4964
CA 2.17975 -10.295 76.7201
CA 10.6611 -6.80554 58.8252
CA 22.8855 -33.176 78.2606
CA -3.49474 11.452 85.382
CA 13.5304 -30.5043 36.9271
CA 29.398 -6.65437 47.1287
CA 22.3226 19.3445 32.1348
CA 14.1988 -0.50768 77.4164
CA 27.5491 5.47619 52.5825
CA -7.44811 -12.4341 21.4412
CA -3.15985 33.0242 51.442
CA 10.1219 2.36414 60.2823
CA -7.64659 17.4444 67.4373
CA 10.1747 -33.8915 35.9795
CA 7.36291 -11.7639 69.8019
CA 1.34372 23.9799 40.8941
CA 14.1194 1.70662 79.7866
CA -19.8858 -3.4948 53.8594
CA 11.5185 -8.65211 73.9345
CA 5.69804 -5.15906 46.6195
CA -1.03393 7.54731 86.7672
CA 28.2335 -4.31874 55.1277
CA 26.5598 22.2183 62.5536
CA 14.2034 -4.00336 45.6031
CA 9.8731 -9.75376 54.4932
CA -11.5627 -5.76451 21.3088
CA 15.3718 -10.3152 71.338
CA 24.9567 6.81633 52.0504
CA -19.0133 0.139263 53.2714
CA -12.7038 27.5791 45.6036
CA -32.657 -7.56924 38.8784
CA 10.432 -8.64058 82.5955
CA 16.8643 -8.54566 60.3517
CA 17.6993 18.1487 46.4393
CA 10.3269 -0.636936 28.9164
CA 10.8858 -3.02163 23.2429
CA -7.09577 -10.6976 29.6321
CA 11.2888 -4.59402 76.7815
CA -17.8179 -13.5198 18.5963
CA -3.03847 12.9738 70.2041
CA -5.59814 21.5312 68.005
CA 26.6439 7.95303 23.1725
CA 5.47488 -13.3689 73.7448
CA 2.99267 -40.6739 70.6913
CA 9.81685 -20.1205 83.5632
CA -34.8757 8.30031 66.1262
CA 33.662 9.96864 57.32
CA 25.963 -8.21724 58.8802
CA 15.6837 -34.8441 43.1481
CA 14.294 -3.25764 76.2223
CA 19.652 -12.0625 33.5647
CA 0.099858 -31.8105 61.36
CA 21.1653 -21.259 54.2709
CA 18.6835 1.34657 59.667
CA 20.1854 4.83269 14.3381
CA 21.2664 13.1782 46.6697
CA 3.90206 10.757 71.1321
CA 5.6833 -24.8754 69.7405
CA 35.311 -0.560378 56.9942
CA -11.9382 28.9098 44.3221
CA -11.7132 30.9881 44.8266
CA 22.5453 -24.7024 61.0601
CA 2.34096 22.4066 39.2389
CA -17.1086 3.30739 45.2257
CA 16.5923 -9.14142 72.0422
CA 12.1708 -7.77426 69.388
CA 3.16391 -40.2048 73.7512
CA 14.4379 -1.88485 79.3551
CA 18.7578 -1.50011 67.9421
CA -10.6822 -27.894 71.4539
CA 7.0102 -10.7504 17.1709
CA -29.4884 15.0125 32.7288
CA 5.45948 -14.1005 82.5313
CA 19.853 -3.04553 68.1923
CA 11.9918 -10.9375 10.8884
CA 1.98278 -10.4979 68.5388
CA -10.02 2.93495 83.9165
CA 32.3464 -1.36105 58.2109
CA 19.8053 -25.8217 68.4758
CA -4.1555 2.08078 68.6439
CA 22.5505 -6.06444 22.0739
CA 11.2316 22.3755 40.6859
CA 27.2041 -6.00834 44.0628
CA 5.98106 -12.3371 78.538
CA 22.6312 15.4291 52.6816
CA 15.0845 -19.7204 75.7966
CA -12.5227 -31.3213 71.9222
CA -12.6749 4.13366 84.3256
CA 17.5243 -2.94307 77.4077
CA 7.59284 -20.7045 29.1398
CA 18.0095 -5.38487 68.8064
CA 3.45695 -33.3615 75.9194
CA 6.23534 -20.8424 68.5504
CA 25.9797 12.3313 54.6398
CA 28.6738 0.285515 48.656
CA 18.9376 16.9309 51.2136
CA 20.9555 0.136047 69.8169
CA -11.2131 10.1565 68.752
CA 28.0171 -4.26759 58.2394
CA -8.18322 27.0893 43.2938
CA 20.9973 -30.6332 46.2789
CA 11.4318 -31.6038 43.0492
CA 20.9559 -1.53811 10.6408
CA -18.757 33.6469 69.5133
CA 6.11308 -16.3864 79.0805
CA -3.38294 -31.4891 31.4382
CA 4.84234 7.13195 63.2029
CA 0.860432 9.71571 68.2312
CA 5.20579 -21.733 66.8604
CA -16.8134 3.73515 47.7114
CA 14.6357 6.70902 18.0133
CA 0.0116869 -6.5267 67.8566
CA -10.1364 26.6763 66.7689
CA 17.9582 -4.47088 66.131
CA -0.994697 29.0507 72.4972
CA 11.975 34.0587 33.4107
CA -22.153 33.8593 65.9555
CA -14.6831 -7.26082 24.0288
CA 16.8158 0.525411 17.0814
