489

CA 39.5863 20.88 67.3803
CA 26.8345 27.2756 55.4585
CA 2.69756 15.9298 55.6245
CA 18.8308 4.11057 49.72
CA 21.6245 2.13949 65.7736
CA 23.0364 -5.20757 31.2961
CA 28.0727 14.5851 43.4455
CA 18.3627 -8.09529 52.1587
CA 20.3997 2.22082 79.5608
CA 30.8783 -2.33111 50.2874
CA 23.1008 19.3641 17.1598
CA -3.22164 20.8801 60.2417
CA 9.0736 -3.22391 69.6329
CA 19.702 -11.8006 44.0904
CA 21.8188 18.7806 57.6244
CA 24.7321 17.0606 58.4575
CA 15.7381 27.2002 28.7391
CA 24.0199 33.176 49.5126
CA 1.02577 -4.00887 39.0241
CA 4.32102 18.9407 51.9722
CA 26.1638 -3.08972 39.8912
CA 24.0438 33.3781 57.2962
CA 1.4493 -1.12949 82.9667
CA 12.9632 21.1278 55.3827
CA -8.20725 0.149471 39.8146
CA 9.76753 -7.94608 65.7664
CA 12.2235 -20.3343 79.0862
CA 11.4263 28.9045 49.3212
CA 20.9971 -11.7162 46.3736
CA 32.1279 16.6675 47.2276
CA 27.805 -2.0602 40.1464
CA 31.196 11.7357 47.5992
CA 16.1026 -11.6557 58.6445
CA 2.88026 42.1878 37.1058
CA 20.4167 20.1307 75.1081
CA 26.8156 31.5702 53.3262
CA -4.11095 28.6798 50.4149
CA 7.25839 -11.7525 43.0577
CA 4.76909 -13.7482 39.2652
CA 18.8964 -9.14871 53.9491
CA 17.9286 -22.6513 70.7964
CA 1.61731 -5.64102 83.2023
CA 28.0892 15.6022 49.8231
CA 23.7069 9.00827 80.7713
CA 0.776547 38.175 48.1574
CA -4.43393 9.65427 58.4521
CA 10.8904 -15.619 30.9383
CA 5.12984 46.3235 38.7708
CA 28.7677 11.2493 45.0568
CA 16.6794 6.06774 67.1965
CA 23.1846 -7.34071 79.4479
CA 6.79529 14.9878 63.5755
CA 37.6586 17.3029 66.2594
CA 18.9081 -16.7394 81.3957
CA 20.7562 4.69127 58.1271
CA 6.65418 -11.2672 35.6229
CA 24.4957 20.3065 38.8732
CA 16.1397 -7.02012 53.011
CA 15.9644 0.391833 78.8018
CA 20.0445 4.32854 30.7542
CA 30.4959 33.1516 51.8577
CA 21.8713 30.4964 72.5296
CA 2.60047 35.8528 53.8738
CA 19.3324 -1.28985 78.1979
CA 36.112 23.5157 64.7688
CA 15.2734 4.76337 83.3307
CA 18.2271 3.4574 30.7461
CA 15.8004 20.71 58.8793
CA -4.35251 22.7577 59.6748
CA 24.2846 2.1614 33.4921
CA 13.3153 -14.9376 57.6511
CA 15.095 -10.7725 34.4637
CA 7.61908 -5.19901 63.8079
CA 37.3705 10.4654 44.3446
CA 13.6572 23.4444 51.9471
CA 30.3322 3.40773 65.487
CA 10.7196 -9.9526 72.3729
CA 15.8962 25.1783 58.101
CA -3.47111 2.32352 37.6818
CA 20.9215 21.2577 37.4209
CA 16.2078 1.47749 43.9903
CA -4.80089 0.30036 34.0798
CA 22.272 26.18 68.6824
CA 12.8747 41.8235 33.1643
CA 18.4205 26.4522 32.672
CA 25.5137 23.2189 74.4728
CA -0.59099 -0.305946 81.0635
CA 6.88833 -3.65979 51.4211
CA 33.256 -7.92113 49.2405
CA 19.9865 3.34251 74.5182
CA 23.7377 -5.49641 83.1456
CA 13.7949 14.8595 53.664
CA 18.6944 5.73005 60.0106
CA -10.1102 23.7124 42.5435
CA 0.555709 -3.47575 82.894
CA 12.8343 -11.8526 46.5679
CA 29.0654 11.4453 78.0893
CA 34.8929 -1.31718 42.1048
CA 17.7971 -15.6357 43.1426
CA 34.8168 14.6771 49.5499
CA -11.3292 5.81073 61.8837
CA -5.48948 29.3742 53.573
CA 17.6132 -6.18572 54.2237
CA 16.6957 3.41332 84.9198
CA 23.7124 5.80417 55.4753
CA 9.53426 -5.12215 41.9086
CA 14.8249 1.93412 74.9786
CA 6.86694 -5.93214 59.308
CA 13.6854 -18.1332 72.9828
CA 8.9493 -17.3172 79.3741
CA 16.6891 29.7616 56.2367
CA 23.9718 21.4107 73.1363
CA 18.9208 -0.686073 54.8286
CA 9.38814 -3.44011 34.2529
CA 21.5489 0.287038 29.6917
CA 29.1718 7.187 83.0581
CA 23.7514 8.80017 77.3713
CA 4.14415 16.2698 50.0064
CA 32.2459 21.162 65.1053
CA 8.21708 20.8893 50.096
CA 18.5865 -4.63399 56.8268
CA -5.71657 15.1508 57.9742
CA 36.2786 24.8206 60.7688
CA 23.6251 6.0396 84.6255
CA 21.0097 -1.92377 55.692
CA 27.566 2.78391 41.9872
CA -7.0089 28.7379 50.6922
CA 9.15178 41.8551 35.0296
CA 20.3344 3.10271 77.6991
CA 20.3766 20.0784 78.4749
CA 35.7318 12.8519 47.1161
CA 28.5178 15.9018 53.3941
CA 27.148 29.5713 72.6648
CA 25.3485 12.7427 40.7093
CA 25.7429 21.2223 65.7045
CA -8.07802 22.7558 50.354
CA 26.2174 20.2878 52.2994
CA 7.76478 -7.89849 61.1511
CA -3.25278 15.1129 60.0875
CA -7.5027 20.6515 59.969
CA 33.1928 20.9222 67.2267
CA 26.9392 30.6718 57.7105
CA 20.8261 1.01293 60.2015
CA 20.1568 -9.44676 52.6236
CA 20.843 -0.488932 68.4859
CA 16.2489 8.03063 65.8128
CA -0.564655 -3.06727 41.8585
CA 20.7548 21.6083 42.1891
CA 2.48995 32.6123 45.6493
CA 23.1436 13.4334 55.0453
CA 34.3794 -4.82021 36.8569
CA 8.65259 -23.7085 79.9279
CA -8.42471 24.0676 60.1653
CA 9.46223 5.70773 50.879
CA 14.9459 -0.0883109 49.3994
CA 5.57437 -19.3596 33.1031
CA 19.9302 -5.18575 45.9766
CA -5.35938 35.6399 44.2543
CA 16.0529 -6.71187 72.9223
CA 27.0151 10.8014 49.678
CA 16.5915 27.8638 60.1114
CA 21.2177 26.2859 38.8957
CA 23.6667 -2.90561 36.2547
CA 16.106 -18.971 36.2382
CA 29.6867 15.649 63.1412
CA -10.9259 15.422 59.7855
CA -9.95034 -1.70789 38.828
CA 9.01033 6.94471 75.0353
CA 10.2665 4.87371 67.7994
CA 28.657 33.2288 51.2004
CA -6.38172 21.9577 48.7862
CA -0.000520255 33.7565 48.9718
CA 29.8778 13.2847 38.0815
CA 11.3968 -20.3829 32.7261
CA 34.9176 13.9332 42.6298
CA 17.2159 -5.87323 69.2023
CA 6.11271 -1.94969 51.1853
CA 12.6243 -15.7852 73.8533
CA 17.7134 -1.35294 60.2091
CA 31.9417 -5.37467 78.3415
CA 19.2435 -0.317649 45.8375
CA 19.4748 10.5121 62.9398
CA 19.4183 14.6014 64.6367
CA 31.2437 12.6823 83.0816
CA 4.12488 -1.26911 72.7602
CA 30.4451 23.2091 64.6761
CA 0.26529 39.6855 41.3346
CA 29.141 -7.55487 42.4316
CA 4.54786 24.7285 59.3986
CA 23.6784 21.0844 57.2057
CA 21.3205 18.4016 36.6813
CA 10.1133 -4.97585 52.9066
CA 8.36578 25.0031 48.1295
CA -2.17235 36.3573 44.8565
CA 17.1428 -6.66767 78.2071
CA 1.67086 -1.52529 31.9434
CA 31.5776 8.74488 80.2598
CA 19.5395 -9.0522 60.1175
CA 4.05659 -17.926 35.7912
CA 25.1962 -4.69199 36.6538
CA 21.655 10.0691 81.4489
CA 36.7264 -0.0529441 72.1923
CA -13.6483 31.5167 46.552
CA 1.75095 20.8671 61.0095
CA 20.7277 10.3641 67.4111
CA 9.81042 19.5763 54.4478
CA 29.123 17.6682 59.0676
CA 29.2957 5.12722 61.9023
CA -4.50321 21.5596 61.9735
CA 16.0279 -10.1705 49.143
CA 6.2037 17.314 50.3388
CA 35.8567 20.9218 67.3038
CA 3.92764 24.6868 44.4135
CA 23.0869 7.22637 78.4773
CA -0.220311 31.9061 48.1062
CA 9.54634 -17.9086 31.3813
CA 13.9611 -9.02715 79.9558
CA 33.4881 6.64544 42.6475
CA 6.42662 21.3432 61.6312
CA -9.29853 32.2851 52.6699
CA 25.4542 5.92621 65.9779
CA -6.72075 38.7467 43.06
CA 28.629 -2.28488 54.9163
CA 15.598 -5.61388 49.6677
CA 11.1187 -1.96475 35.4037
CA 19.1765 -23.1415 36.2754
CA 12.4854 -5.78423 35.8063
CA 14.9942 -3.08153 71.8692
CA 4.7618 9.35946 75.5179
CA -2.31622 23.6926 60.6296
CA 25.6563 24.9988 65.1367
CA 15.7229 19.8118 57.2454
CA 12.5078 -12.9602 55.9704
CA 6.16933 11.5038 48.3531
CA 8.93558 28.0157 51.0959
CA 29.895 12.3866 40.4454
CA 19.5508 -12.5251 36.6397
CA 21.0837 -0.46643 45.4985
CA 20.1707 24.5677 35.4985
CA 8.73555 -10.6615 47.0806
CA 25.8342 36.9129 54.6199
CA 11.5087 -6.81831 54.5234
CA 15.4339 -10.2579 77.9287
CA 37.0477 -3.91881 38.8773
CA 31.0505 22.093 68.6579
CA 25.9497 16.7569 66.5893
CA 28.0507 19.4241 62.1317
CA 21.062 4.23591 67.3921
CA 13.0003 -17.5417 58.1351
CA 5.39334 14.8267 55.0394
CA 13.336 -18.2345 76.1402
CA 22.7583 15.0567 61.239
CA 16.2421 -17.4866 69.6275
CA 16.3743 -1.90677 77.681
CA 37.2152 2.29081 45.5623
CA 15.3325 29.503 37.9775
CA 32.6743 19.3715 59.9903
CA 17.2333 4.58397 59.1138
CA 9.9879 -5.02986 64.9179
CA -4.78615 -1.28074 43.0028
CA 30.3763 -0.00995201 68.6393
CA 28.9745 14.8766 46.5114
CA 18.1574 -13.1726 41.4691
CA 22.5261 -1.91813 63.8155
CA 32.9979 0.479842 69.7191
CA 39.6426 6.28173 42.6899
CA 4.72825 6.99634 48.7827
CA 8.53006 17.9348 59.6727
CA 26.7488 20.0231 56.2427
CA 6.3174 5.89184 80.0942
CA 32.3882 -2.32712 39.1795
CA 20.2425 -10.729 50.8679
CA 3.61435 3.68612 48.9891
CA 11.4676 -17.7879 33.8853
CA 22.3725 7.70427 84.0091
CA 38.7732 12.2482 48.3285
CA 27.6931 -2.5157 42.369
CA 13.5013 -10.1992 72.1426
CA 29.9107 19.4586 63.4197
CA 0.744662 41.1696 36.4131
CA 25.6926 32.1228 50.8814
CA 11.7167 -18.241 29.3949
CA 21.4338 5.04154 44.9096
CA 23.0579 21.6528 71.5797
CA 15.4372 1.27011 82.9585
CA 13.13 -2.36495 42.7526
CA -8.34212 20.513 62.3689
CA 29.4757 12.5402 48.4057
CA 12.077 4.28306 75.9907
CA 13.1769 -23.8856 71.0179
CA 20.9835 0.229108 81.671
CA 25.6371 2.01208 69.6065
CA 20.7107 24.2361 70.2287
CA 14.8228 -7.86161 76.3354
CA 34.3144 -1.94621 73.1912
CA 29.1417 -6.96513 40.3417
CA 19.54 6.05366 26.7837
CA 36.9884 17.9039 47.5384
CA 0.6805 29.8868 52.1072
CA -10.1558 13.4101 58.7816
CA 37.3315 -8.27881 48.4313
CA 1.91047 -0.0973551 45.0301
CA -7.76548 31.307 42.5794
CA 2.25186 17.0888 63.1498
CA 25.4656 25.9805 56.7065
CA 19.9302 9.25502 84.0092
CA -13.0776 11.4161 54.5907
CA 8.79886 3.39345 70.2126
CA 26.6428 15.2122 45.1012
CA 7.82356 7.45005 39.3599
CA 6.08433 46.4544 34.8739
CA 10.7288 -13.638 54.33
CA 9.85249 23.8042 50.41
CA 29.904 2.21675 41.3749
CA 25.2969 10.5526 77.2063
CA 22.3249 18.8277 66.5874
CA 3.55406 13.8999 49.0167
CA 30.7996 -2.07037 69.3049
CA 29.421 1.68363 82.7801
CA 22.5983 23.3529 40.9045
CA 18.5444 14.5935 61.5664
CA 18.8748 29.0561 60.3205
CA 15.3061 21.3419 50.3458
CA 11.5595 -19.1576 75.1785
CA 20.734 -20.0668 71.9853
CA 11.4739 -19.1392 31.0752
CA 26.0829 17.2045 35.7225
CA 1.43887 44.5928 37.2253
CA 13.3099 -20.1846 31.0788
CA 11.7146 2.69601 78.7852
CA 19.3554 27.3285 67.7002
CA 23.7086 29.7256 46.0972
CA 36.9724 7.19446 45.9375
CA -12.7054 29.0661 48.8312
CA 16.8145 -0.330155 52.785
CA 26.914 0.322736 39.5694
CA 31.6742 18.6099 50.3748
CA 19.7714 12.021 64.5321
CA 13.3232 -8.65842 73.4296
CA 19.2258 -5.19312 60.7039
CA 23.258 25.8579 75.475
CA 13.3868 1.76166 80.9823
CA 21.1368 3.85688 87.0058
CA 23.8686 -1.09165 68.2395
CA 29.036 -1.6041 53.1587
CA 9.85911 -13.7842 70.8924
CA 27.1317 14.4458 54.3188
CA 26.3967 16.5596 42.1245
CA 5.27779 0.242031 78.2381
CA 17.2608 19.6482 58.5908
CA -4.90715 13.3035 56.3569
CA 34.615 -3.86208 43.9542
CA 28.1788 11.1297 52.0768
CA 2.93496 -2.39055 82.5002
CA 26.2194 -3.8059 69.9642
CA 29.2394 10.6711 48.8097
CA 23.6956 18.8314 76.9979
CA 14.2608 3.98482 85.1544
CA 19.7969 8.09358 55.6222
CA 15.9343 -13.8055 36.8441
CA -3.18015 28.5158 46.7249
CA -1.07906 3.21524 33.6438
CA 22.6891 24.2777 32.8101
CA 18.6069 -3.75593 80.2581
CA 15.3781 3.92876 65.5538
CA 26.415 0.500954 43.1153
CA -6.54697 1.07418 37.2263
CA 9.10076 13.6202 54.4993
CA 2.89391 17.5261 56.9213
CA 37.5646 -0.0101424 77.0604
CA 30.4919 14.9532 49.5627
CA 16.5102 -21.0426 34.6674
CA -10.4384 26.3106 51.227
CA 29.5065 9.09817 46.0694
CA 21.7379 2.55416 30.4517
CA 8.96579 -12.6533 42.3157
CA 26.0512 -2.85263 33.3037
CA 23.1852 32.6682 54.0888
CA 20.7757 5.76551 73.9599
CA 37.4697 -5.00353 72.0951
CA -11.0911 28.7296 47.0271
CA 13.0877 -13.8893 31.7459
CA 16.2893 -4.8845 84.0147
CA 20.488 -6.20609 50.4559
CA 17.5653 2.69659 32.9769
CA 19.1186 -5.30753 58.7636
CA 20.1658 -12.7694 74.5474
CA 44.2599 -8.46095 75.1583
CA 18.5326 -8.22499 78.6401
CA 13.3158 -21.212 34.7571
CA 27.4189 10.2854 78.5147
CA 16.6878 -17.4711 55.62
CA 17.6359 -21.1378 36.6177
CA 13.1812 30.6989 53.9118
CA 4.34217 10.8238 62.2324
CA -12.1403 10.0082 58.3328
CA 19.7876 1.05609 26.5299
CA -11.532 30.6889 50.4433
CA 20.3211 17.9077 63.2351
CA 12.119 18.7713 57.6408
CA 18.4059 27.4883 35.1441
CA 35.3054 -1.95902 77.8189
CA 6.20829 44.6076 41.074
CA 19.8359 -12.3911 80.2359
CA 25.9715 34.2197 50.9313
CA 25.9558 12.397 58.905
CA 18.881 4.2671 45.4871
CA 2.97119 17.1456 69.4683
CA 35.1938 16.7086 46.2144
CA 40.7888 12.9896 46.6071
CA 21.409 -10.5061 38.0704
CA 7.22779 23.1036 60.2886
CA 20.5184 7.44224 86.1397
CA -1.28362 -8.60787 53.9943
CA 8.54214 -6.02435 52.2514
CA 13.5637 5.8989 64.8323
CA 29.7139 -6.21632 57.5237
CA 23.8883 -5.17057 51.9741
CA 29.1373 -6.70592 68.782
CA 12.297 -18.6041 27.3358
CA -10.7062 7.91725 59.7194
CA 16.5275 31.855 62.076
CA 29.3755 4.67387 40.9375
CA 1.44814 33.5312 50.6461
CA 9.27695 1.72193 73.7695
CA 11.6284 -6.59558 75.616
CA 11.8829 -21.9766 74.4974
CA 20.4643 1.10276 73.5079
CA 24.9073 14.3538 34.8763
CA 3.3179 -0.0538479 61.3636
CA 21.4401 19.8132 71.6271
CA 32.3801 11.6707 43.9929
CA 28.3583 17.6102 63.6716
CA 6.6844 -1.07544 57.5258
CA 20.6256 22.627 68.26
CA 25.9267 -1.43047 38.4343
CA 5.74793 -6.5592 53.3457
CA 30.7859 3.06164 82.3166
CA 0.704127 6.62718 56.9223
CA -4.24265 33.7101 47.8118
CA 21.5805 -4.82226 78.5081
CA 31.9545 13.667 38.9518
CA 3.07441 23.4783 63.4946
CA 14.7972 -17.6038 40.7634
CA 31.0575 24.7077 72.8672
CA 24.5173 16.4111 60.7183
CA 20.1828 -13.7835 43.1904
CA 19.9833 3.55454 47.2662
CA 24.1495 12.4906 57.6921
CA 19.8468 11.6046 81.5799
CA 1.79783 20.0516 65.5316
CA 30.5637 15.3213 47.4991
CA 21.4524 -7.90388 56.6495
CA 26.7519 19.3532 76.4453
CA 5.80451 3.88355 49.8925
CA 5.69149 0.86216 49.2919
CA 30.1781 3.42874 39.7303
CA 13.9987 1.13431 51.204
CA 3.02779 27.9537 44.8078
CA 12.3843 32.762 52.9553
CA 34.1793 26.4523 72.983
CA 9.50877 26.3056 60.8274
CA 27.2532 26.5211 51.6388
CA 37.2898 20.1339 65.3635
CA 20.4034 5.71479 76.261
CA 23.3827 26.2329 64.0747
CA 17.0987 -16.9043 83.1069
CA 6.15171 43.9487 35.7883
CA 21.9014 18.6002 15.5791
CA 11.7269 -6.07863 72.3182
CA 16.9174 -1.82137 81.8705
CA 8.71079 -12.9206 23.6387
CA 21.6159 4.01619 75.1643
CA 24.8242 21.1099 36.8943
CA -6.33154 28.7002 43.5788
CA 32.1622 13.2469 34.5253
CA 20.2115 3.03352 45.4666
CA 12.7566 -5.32566 33.0155
CA 18.9932 -21.6072 71.8109
CA 29.4169 27.0823 67.9924
CA 5.98202 18.9964 58.4775
CA 22.4315 1.62761 73.9115
CA 24.1185 16.9225 38.9548
CA 33.7536 1.0248 72.7021
CA -0.347372 16.4079 72.9667
CA 6.1362 -1.08647 76.5941
CA 23.2125 17.2101 41.4436
CA 10.2448 -15.4726 27.4558
CA -6.34411 27.5894 53.0112
