489

CA 39.5863 20.88 67.3803
CA 29.6859 3.32387 65.056
CA 18.1601 3.78181 46.3024
CA 14.4228 -8.96198 58.787
CA 26.0917 26.2343 36.9727
CA 26.1484 7.19005 26.8494
CA 10.6261 46.3401 31.2826
CA 20.9118 -6.21635 79.8212
CA 25.4543 7.2153 61.2582
CA -10.9555 -4.48043 42.118
CA 23.1008 19.3641 17.1598
CA 5.42184 0.902238 35.0562
CA 5.45526 23.903 69.5072
CA 26.2992 -6.26509 44.7401
CA 21.8188 18.7806 57.6244
CA 19.4412 11.5118 59.9435
CA 16.3849 11.2148 81.2374
CA 26.4101 14.3043 64.7228
CA 23.0678 4.01415 72.5257
CA 29.6527 3.75248 69.0858
CA 12.6748 4.3393 90.3281
CA 18.4569 13.1813 58.389
CA 6.73915 -11.8378 58.3109
CA 6.40355 0.616787 71.5964
CA 26.8051 8.76332 20.2045
CA 6.77361 28.5721 49.4287
CA 22.7418 17.3605 38.4593
CA 6.48354 5.18596 83.0269
CA 1.0294 8.24909 55.879
CA 6.79415 -16.6061 33.4499
CA 16.3825 35.0947 59.1465
CA 5.10973 7.32092 75.9959
CA 17.897 -12.8393 72.0506
CA 22.4021 16.9014 58.6563
CA 23.683 -0.232107 60.2013
CA 35.8094 13.7107 80.5991
CA 22.0987 4.29477 76.5389
CA 24.6492 1.6107 42.9274
CA 4.76909 -13.7482 39.2652
CA 23.595 5.73058 82.9784
CA 34.242 25.9812 76.8371
CA 27.6311 -5.91709 70.2373
CA 2.14897 15.6753 56.7824
CA 31.2209 10.528 36.5054
CA 16.0722 6.29091 48.5158
CA 23.5668 -4.97098 55.1378
CA 21.0269 8.62055 25.0903
CA 27.9375 1.50531 80.6782
CA 3.20905 7.87601 59.605
CA 7.00268 -15.0957 59.8295
CA -9.59861 18.3833 62.8942
CA 21.3002 7.96518 51.6604
CA 23.5426 -9.4367 53.9474
CA 18.9081 -16.7394 81.3957
CA 27.7464 13.0502 33.542
CA 15.9627 24.3347 50.7555
CA 24.4957 20.3065 38.8732
CA 22.4311 9.02738 81.4663
CA 12.6252 9.772 80.7004
CA 16.3793 7.9165 87.6422
CA 11.9822 -17.9296 43.2143
CA 28.4558 16.7737 57.5529
CA 3.98898 11.923 64.6156
CA 23.5381 -13.3892 54.4217
CA 36.112 23.5157 64.7688
CA 8.22942 19.7285 52.156
CA 18.2271 3.4574 30.7461
CA 5.26578 -1.20458 58.9158
CA 22.6299 20.9042 59.9841
CA 20.5355 -2.80919 33.5762
CA 26.3329 -0.905445 39.9908
CA 15.095 -10.7725 34.4637
CA 15.4792 -7.21627 63.611
CA 7.0328 -19.5249 38.1499
CA 24.2163 -16.1751 46.3565
CA 27.2737 15.8135 56.4014
CA 26.9338 -4.10691 53.237
CA 28.7799 35.3873 51.5028
CA 28.8027 6.01038 66.8165
CA 17.6493 -7.49969 49.3121
CA 35.9427 -4.95143 73.6235
CA -4.80089 0.30036 34.0798
CA 26.1586 10.7769 27.6938
CA 9.28148 -17.3245 58.332
CA 22.4955 30.3346 63.1404
CA 21.7437 5.44657 25.651
CA 21.464 -9.07619 55.1152
CA 16.7317 -17.1888 36.4123
CA 38.7031 -8.92775 68.1902
CA 14.5193 -13.2398 63.3663
CA 22.4159 2.30149 43.7767
CA 34.0499 1.36224 72.4392
CA 20.1692 2.37749 70.8482
CA 19.6497 1.38479 67.7133
CA 18.3766 15.5402 61.0566
CA 30.8205 -5.64838 69.3293
CA 1.11967 19.2104 54.8086
CA 20.9924 -8.759 47.2131
CA -2.87967 22.0842 65.6923
CA 17.5261 -5.33067 63.393
CA 6.12466 -1.91801 82.3343
CA 20.6143 -7.83867 72.8123
CA 25.2116 10.8093 60.4956
CA 21.3825 -3.14906 38.0239
CA 4.11419 2.3922 35.416
CA 22.2949 0.895318 49.1393
CA 27.1625 -5.6404 68.4397
CA -8.18175 -0.244288 46.9235
CA 37.0334 6.28751 83.572
CA 21.7989 -7.72317 43.102
CA -4.27642 2.70989 38.3796
CA 28.697 11.5485 42.6115
CA -2.14949 -0.682397 47.4331
CA 35.2196 25.5247 75.2268
CA 21.5489 0.287038 29.6917
CA 5.87818 7.44455 74.0453
CA 23.7514 8.80017 77.3713
CA 6.01036 29.6589 46.6635
CA 31.871 15.5643 53.5478
CA 6.43854 -15.6519 29.4465
CA -4.65335 36.8493 48.0092
CA 20.842 21.159 57.9456
CA 24.4935 -1.14729 49.4247
CA 26.2726 14.3915 32.3084
CA 17.1542 6.62219 61.0307
CA 15.6453 1.11224 62.2067
CA 13.7792 -21.3327 77.8136
CA 13.8428 22.8608 55.7732
CA 22.9955 24.7489 66.0634
CA 28.7862 21.0533 36.8217
CA 8.20979 -19.5949 32.7098
CA 28.5178 15.9018 53.3941
CA 0.95243 27.7107 48.5137
CA 12.3375 -10.2485 73.541
CA 25.7429 21.2223 65.7045
CA 13.643 -5.58329 56.7803
CA 30.4086 19.7471 65.7875
CA 18.266 13.4869 67.9924
CA -3.25278 15.1129 60.0875
CA 3.29907 29.8787 49.0065
CA 24.2047 22.6848 38.3957
CA 7.7791 -1.51462 60.526
CA 17.1044 -7.57002 47.2417
CA 18.6635 -0.244275 88.3975
CA 20.843 -0.488932 68.4859
CA 9.57138 26.2303 56.7894
CA 19.3725 2.11865 61.8862
CA 20.7548 21.6083 42.1891
CA 2.48995 32.6123 45.6493
CA 23.1436 13.4334 55.0453
CA 7.51792 24.1502 59.7483
CA 23.3085 4.23715 23.9261
CA 7.47235 -10.7534 54.1199
CA 17.9417 0.754294 42.3133
CA 13.3389 4.10703 73.3311
CA 5.57437 -19.3596 33.1031
CA 23.3186 2.1709 71.9238
CA 19.8365 -8.14778 55.5276
CA -0.58979 -2.32035 59.5033
CA 3.28187 0.0755256 55.0076
CA 28.7996 -4.793 51.7102
CA 25.2052 10.4169 82.7482
CA 23.6667 -2.90561 36.2547
CA 17.8203 -10.7249 50.3712
CA 23.6748 0.568849 53.8725
CA -10.9259 15.422 59.7855
CA 28.8348 25.6613 65.8614
CA 6.71893 -9.93677 59.7192
CA 32.2864 19.4821 39.3225
CA 28.657 33.2288 51.2004
CA -6.38172 21.9577 48.7862
CA 25.9625 24.0584 39.704
CA 12.7645 -18.4094 38.3007
CA 27.5793 12.2016 77.7944
CA 34.9176 13.9332 42.6298
CA 6.96268 23.6652 64.9921
CA 33.4832 9.2004 76.6741
CA -14.2745 14.1343 68.2778
CA 19.3324 1.99387 85.1287
CA -5.5676 1.51658 46.407
CA 14.1225 7.02776 59.0234
CA 18.016 19.294 60.7029
CA 29.1833 18.5503 37.1752
CA 22.0614 7.51426 27.2508
CA 8.39442 -13.8003 54.7237
CA -5.31443 33.7564 43.2145
CA 7.23078 -8.50029 57.5814
CA 17.8978 -2.3644 50.1657
CA 6.12934 0.72903 80.6056
CA -7.31364 27.2128 45.5501
CA 17.0645 -3.12369 81.8232
CA 10.1133 -4.97585 52.9066
CA 8.36578 25.0031 48.1295
CA 31.1395 7.92494 45.8881
CA 19.6507 -12.0545 80.182
CA -3.67471 -1.41232 45.0589
CA 22.6423 11.8451 23.2731
CA 19.5395 -9.0522 60.1175
CA 4.05659 -17.926 35.7912
CA 24.6967 9.34021 53.8556
CA 2.96173 -0.980689 64.4662
CA 36.7264 -0.0529441 72.1923
CA -1.92224 -5.65567 87.822
CA 1.75095 20.8671 61.0095
CA 20.7277 10.3641 67.4111
CA 16.6418 -0.245547 81.3769
CA 29.123 17.6682 59.0676
CA 11.001 21.3129 53.4658
CA 21.1752 12.1916 85.1011
CA 9.80944 -10.3662 76.2635
CA 22.8992 -3.99668 45.7327
CA 18.4432 -12.9551 47.4248
CA 3.92764 24.6868 44.4135
CA 4.62381 11.059 49.277
CA 31.9511 11.4597 83.5365
CA 16.375 2.19262 82.2384
CA 13.9611 -9.02715 79.9558
CA 8.67353 2.60275 79.8951
CA 23.847 10.9695 55.8372
CA 15.4398 -6.49842 80.326
CA 13.1231 -7.52957 57.9534
CA 8.50793 -16.6214 78.3586
CA 22.4869 17.2611 42.1098
CA 23.219 -5.82856 47.7809
CA 31.5427 2.62021 70.0647
CA 24.6499 10.9339 41.9936
CA 22.6568 19.6712 18.8865
CA 16.0658 -0.993572 34.3451
CA 24.7333 -7.52869 54.515
CA 27.1855 7.80609 78.6775
CA 24.4403 9.65079 78.8449
CA 20.1183 -9.93633 83.059
CA -0.351163 26.9411 46.0258
CA 37.8477 7.62151 80.457
CA 22.1062 24.2124 74.0153
CA 14.2409 -11.4276 32.4046
CA -2.7613 -0.124843 56.8991
CA 24.3272 5.34422 85.0933
CA 13.617 22.8448 59.9872
CA 23.5625 0.134402 84.0829
CA 24.3519 15.8636 38.2646
CA 26.0673 12.4074 51.8464
CA 24.375 13.8459 59.7754
CA 30.5111 7.30729 61.7371
CA 2.8916 0.050523 36.369
CA 27.3909 13.0151 39.9862
CA 26.4247 17.6106 58.0737
CA 33.4709 9.2451 52.8687
CA 20.6703 0.190954 55.0802
CA 20.6512 1.5937 48.0527
CA 26.4051 -6.88401 41.1647
CA 24.7716 7.33813 22.8305
CA 4.94052 -5.28243 44.9863
CA 7.62382 4.75404 49.2464
CA -11.0162 24.0917 48.4684
CA 8.33873 27.6252 51.6179
CA 11.7509 -15.6469 64.1717
CA 17.2333 4.58397 59.1138
CA -4.67518 24.6551 64.0067
CA 8.85028 8.88795 80.9051
CA -0.161895 -2.7579 81.7205
CA 28.9745 14.8766 46.5114
CA 22.16 -2.17611 53.0796
CA 28.1517 8.40238 47.573
CA 25.4868 2.81966 72.2202
CA 14.3789 -16.802 32.0894
CA 21.8151 10.2725 85.0685
CA 11.2744 -26.2294 79.764
CA 7.9121 -6.88126 60.6187
CA 6.3174 5.89184 80.0942
CA 22.5556 20.0803 67.3164
CA -7.01693 0.598834 40.6503
CA 3.61435 3.68612 48.9891
CA 35.543 4.74191 72.5092
CA 23.0432 -5.70799 36.7084
CA 17.7411 2.14126 49.4228
CA 16.9944 5.8248 50.3592
CA 13.5013 -10.1992 72.1426
CA 15.9219 6.35111 83.1331
CA -11.4078 4.09196 35.6321
CA 28.6663 13.9726 44.4177
CA 19.3346 -2.79626 83.2698
CA 3.85223 -9.49047 58.921
CA 7.56681 -12.2525 49.6975
CA 33.0953 29.1188 75.5614
CA 17.9356 -8.82933 78.2675
CA 22.1891 19.3615 37.2094
CA 19.1356 14.2836 78.3817
CA 26.0405 31.6976 54.8426
CA 18.5462 -1.85915 79.9355
CA 35.3386 22.5996 76.7386
CA 37.3658 15.718 44.9145
CA 16.5016 5.2772 69.5864
CA -10.8313 -0.549481 42.5845
CA 34.3144 -1.94621 73.1912
CA 2.90028 -1.18117 58.7191
CA 11.7723 -5.54442 67.3719
CA 30.4776 11.82 60.8373
CA 22.2955 -13.9136 48.9945
CA 11.3499 4.96812 74.7469
CA 16.7786 -23.6356 81.1565
CA 1.91047 -0.0973551 45.0301
CA 4.48795 17.13 44.5343
CA 20.8787 27.327 70.6062
CA 25.4656 25.9805 56.7065
CA 22.4868 -1.14391 71.3663
CA 23.0999 1.61016 28.9638
CA 15.2211 5.06039 63.4415
CA 33.155 11.4633 35.6545
CA 19.5132 20.6974 62.7489
CA 13.757 -17.7766 30.6389
CA 33.2394 24.8408 75.4533
CA 11.1597 -6.69272 74.703
CA 18.5044 0.244537 51.4259
CA 21.8737 12.2953 81.1216
CA 10.6427 20.4803 51.4597
CA 18.8547 -5.1917 40.9048
CA 30.7996 -2.07037 69.3049
CA 18.8774 -7.42772 70.1344
CA 21.8531 -2.4618 78.8004
CA -1.94731 31.4529 51.1582
CA 18.8748 29.0561 60.3205
CA 20.7912 3.57402 60.7506
CA 7.40175 -22.9663 32.5319
CA -3.71114 25.5611 50.3178
CA -13.6284 15.6672 65.1544
CA 27.7606 4.30702 61.6106
CA 6.4762 -6.23077 54.9913
CA -0.450485 6.93623 59.3534
CA 24.0971 -6.63497 33.3386
CA 24.5375 25.4934 55.1232
CA 4.11977 -19.0672 79.4875
CA 32.4248 26.41 74.3777
CA 25.1163 9.56409 85.3305
CA 16.8145 -0.330155 52.785
CA 29.645 8.60571 55.4091
CA 29.6883 18.0992 45.5164
CA 6.75087 17.9628 53.9909
CA 31.2727 4.67181 67.4915
CA 29.0565 12.0392 36.9342
CA 7.02981 -4.86359 60.8794
CA 26.5011 23.7665 76.5963
CA 21.1368 3.85688 87.0058
CA 9.40398 -19.6387 73.3621
CA 32.5315 11.0657 80.2065
CA 5.21083 15.9364 46.7945
CA 20.0785 15.6789 58.464
CA -3.4386 -0.0833959 36.8815
CA 5.14515 -18.1613 38.121
CA 22.6555 -4.74141 43.088
CA 6.58041 6.19034 75.4614
CA 8.65506 -6.47701 56.5303
CA 28.1788 11.1297 52.0768
CA 2.93496 -2.39055 82.5002
CA -0.791237 -0.6456 39.485
CA 29.2394 10.6711 48.8097
CA 3.38804 9.92458 52.3373
CA 19.9791 -5.52966 85.9949
CA 22.4608 15.3715 61.9284
CA 34.2772 9.8345 80.2001
CA 32.008 18.6406 41.3956
CA 25.3895 30.4481 59.8806
CA 22.8966 -6.75063 31.5449
CA 18.6069 -3.75593 80.2581
CA 21.545 27.7113 60.7002
CA 27.0637 8.13528 41.7746
CA -6.54697 1.07418 37.2263
CA 26.506 3.74377 48.1571
CA 2.89391 17.5261 56.9213
CA 17.1698 -11.1413 79.7446
CA 11.3309 -13.6162 34.259
CA 13.0435 -25.9252 76.3743
CA 41.0495 -12.335 66.3788
CA 24.685 10.4801 48.4588
CA 21.7379 2.55416 30.4517
CA 1.57971 4.58643 58.4321
CA 9.63455 29.9282 47.6118
CA 14.2738 3.53905 88.7612
CA -7.31015 20.7977 63.4371
CA 10.1012 -17.8638 30.1315
CA 19.9821 13.4332 79.9979
CA 13.0877 -13.8893 31.7459
CA 20.1253 6.93822 45.6844
CA 27.11 4.0038 27.2823
CA 17.5653 2.69659 32.9769
CA 23.5894 10.7883 62.7434
CA 20.1658 -12.7694 74.5474
CA 27.4355 0.0785071 34.9031
CA 21.7078 13.0761 77.0472
CA 27.5683 11.928 84.5189
CA 6.18981 9.0292 51.2361
CA 9.08025 21.2495 49.5851
CA 32.4687 -8.25275 35.5769
CA 1.68063 -3.61397 42.0286
CA 4.34217 10.8238 62.2324
CA 18.9381 -4.95941 53.1888
CA 22.4472 -9.02896 39.9377
CA 25.0167 5.04116 72.0792
CA 11.1411 -6.37925 59.7211
CA 12.119 18.7713 57.6408
CA 33.5851 13.257 76.8818
CA 35.3054 -1.95902 77.8189
CA 12.6921 9.16045 64.4369
CA -4.34684 -3.23924 49.3254
CA 25.9715 34.2197 50.9313
CA 25.9558 12.397 58.905
CA 7.14146 -14.1458 56.2524
CA 0.225703 -5.04043 84.0059
CA 35.1938 16.7086 46.2144
CA 1.82162 31.2668 53.0516
CA 19.2376 -9.70614 76.1606
CA 4.6396 14.4009 48.5741
CA 14.8598 8.57673 62.3727
CA -1.3919 25.6054 51.9138
CA 17.0839 2.70206 79.5908
CA 27.2015 25.7181 52.4536
CA 21.1723 21.2778 65.9547
CA 15.1394 -26.4909 82.9666
CA 20.3984 -5.49999 42.859
CA 26.8352 -0.0682502 80.4985
CA 21.4494 -11.0245 80.3869
CA 16.5275 31.855 62.076
CA 24.0903 12.5717 85.0622
CA 21.1924 -0.809904 50.7544
CA 30.5464 14.2723 47.71
CA 10.2286 -17.2004 76.7752
CA 24.3106 32.3891 61.8208
CA -8.85276 -0.825991 43.5943
CA 21.4416 9.07183 76.6896
CA 3.3179 -0.0538479 61.3636
CA -4.7416 18.7569 64.5746
CA 31.5168 26.4187 72.2952
CA 6.36041 -15.8585 72.6981
CA 23.4066 18.8132 61.185
CA 28.9721 23.9873 68.103
CA -13.2549 16.2208 62.034
CA 17.6877 23.0755 75.7137
CA -3.28921 3.76399 56.9429
CA 0.704127 6.62718 56.9223
CA -4.24265 33.7101 47.8118
CA 15.1799 4.11261 65.2326
CA 26.3244 15.8304 86.1747
CA 29.4157 9.55663 35.3645
CA 30.11 -8.76122 39.5735
CA 26.0727 20.5931 77.8077
CA 30.3821 7.08474 47.6257
CA 7.72475 -9.87726 50.4674
CA 16.2739 -13.4235 43.7597
CA -10.0882 13.7967 61.4535
CA 20.5284 0.88753 60.0165
CA 1.79783 20.0516 65.5316
CA 21.4639 -16.9879 83.4475
CA -0.609437 -4.70182 81.0119
CA 26.7519 19.3532 76.4453
CA 3.82754 -4.47203 55.147
CA 18.3421 -15.0526 40.0628
CA 30.1781 3.42874 39.7303
CA -2.76941 20.6747 56.3612
CA 1.38087 15.7289 44.2635
CA 26.4958 2.18755 67.6472
CA 0.995158 -3.27585 60.5904
CA 19.1929 -14.6325 74.936
CA -10.082 -1.3519 40.236
CA 10.6311 43.4683 32.3092
CA 20.4034 5.71479 76.261
CA 23.3827 26.2329 64.0747
CA 9.95213 -15.9379 73.0328
CA 33.3976 14.8392 46.4755
CA 24.4961 6.40587 26.4756
CA 11.7269 -6.07863 72.3182
CA 17.2366 3.87053 66.0582
CA 16.2446 -2.77064 76.3793
CA 7.3017 7.90006 77.0231
CA 24.8242 21.1099 36.8943
CA 31.6744 29.1405 74.2563
CA 20.9325 14.0186 57.9817
CA 27.7849 18.7557 56.6285
CA 9.44114 -23.2974 76.2514
CA 10.9152 -18.4098 57.854
CA 11.1204 -6.95026 56.6466
CA 9.85702 -12.8096 72.9426
CA 10.1918 8.91145 78.0868
CA 1.66968 24.8811 47.6064
CA 16.0656 4.79113 56.7412
CA -8.95068 31.0953 43.9719
CA 24.3471 4.47936 50.7178
CA -1.86012 0.132617 60.5615
CA 12.3271 -16.6347 71.5598
CA 18.6012 12.702 62.0146
