489

CA 16.8573 -37.1677 43.7594
CA -11.7745 -20.379 55.7606
CA 14.866 -2.15778 66.9143
CA 17.5543 -0.417513 81.6784
CA 26.4321 -6.03813 46.1896
CA 15.1441 -7.07679 55.7173
CA -18.6144 14.959 50.8224
CA 15.1077 -35.393 78.9951
CA -18.1479 -18.2172 57.7741
CA 10.646 -23.9082 65.1847
CA -7.25285 3.1903 93.4314
CA 20.9497 5.36219 45.8623
CA 1.01575 17.6799 32.9504
CA 26.8517 20.9263 34.9096
CA 30.3682 2.85597 58.9058
CA 5.41562 -19.8294 40.4811
CA 19.5196 -9.47743 31.5639
CA 1.01911 22.8245 69.5653
CA 14.0101 5.80952 82.7707
CA -8.75394 3.88689 86.6581
CA -7.96047 -3.78281 55.0386
CA -9.6514 -7.56957 20.5136
CA 15.7853 -28.219 75.9999
CA 34.2246 3.04237 54.7328
CA -35.4201 7.04434 68.4097
CA 22.9543 -29.9363 63.4469
CA 4.66592 -39.6219 57.8838
CA 12.8835 -1.57831 25.5908
CA 3.84549 -14.4116 38.2426
CA -2.89334 4.62951 85.1097
CA 26.2094 10.5846 50.0179
CA 28.28 3.44635 51.3126
CA -7.6823 -17.5185 23.8079
CA -3.91406 11.6229 81.4652
CA 17.7549 21.0816 58.1223
CA 13.4011 1.47471 81.7142
CA 18.7745 -31.6712 83.3405
CA 16.8257 -30.6904 78.3151
CA 22.541 -2.06883 48.8071
CA 11.7666 29.8433 65.0356
CA 8.21621 -18.4873 76.4306
CA -10.0117 -7.25559 56.1269
CA -6.21433 -11.0761 28.8798
CA 22.0655 18.6034 45.8641
CA -1.21513 -8.20698 43.7239
CA 3.85272 22.7776 48.2849
CA -17.2823 37.1975 43.7567
CA 20.2815 -20.3814 52.0765
CA 5.93787 -16.7188 40.8032
CA -16.0563 -7.69088 56.7656
CA 13.4101 -40.1028 81.2479
CA 24.3412 17.9054 30.3203
CA -6.21978 -16.6818 26.2552
CA 21.9733 19.7414 27.2909
CA -4.23065 4.12602 22.1814
CA 16.1248 -26.407 64.3408
CA 18.3469 -22.7253 74.5788
CA 36.0974 9.56418 60.1568
CA 21.3425 -2.60901 76.6679
CA 7.1755 -22.6861 69.3361
CA 0.314607 34.9824 36.9711
CA 20.8957 18.7337 58.0699
CA 25.624 21.2728 26.6535
CA -14.5641 -25.3008 77.2967
CA -8.66212 24.2093 37.9051
CA 18.4599 -19.4108 69.305
CA 32.079 0.805439 60.0978
CA 10.3642 -24.964 25.4442
CA 11.8315 -30.2214 39.7835
CA 49.8155 4.87331 48.4034
CA 6.85897 9.49658 72.5481
CA 36.405 -0.352513 59.3995
CA -18.021 -7.43206 55.0504
CA 50.8626 3.69035 49.4295
CA -0.545842 11.7743 74.9064
CA -9.19651 30.57 50.1847
CA 9.05227 -21.3221 68.9126
CA 21.1588 11.5831 26.5167
CA 13.6827 3.5015 68.8711
CA -5.3118 4.49188 38.2138
CA -25.3084 15.4816 33.2251
CA 12.9152 11.0696 72.289
CA 29.3641 -2.97824 62.2957
CA 3.00644 34.1111 60.4737
CA 20.6308 -30.7018 65.8828
CA -4.36431 21.7561 66.4481
CA 3.91273 -9.10346 83.7784
CA 14.5849 16.1555 49.5485
CA 34.2429 -4.59043 60.1542
CA 4.44467 9.05988 72.9129
CA 9.73983 -22.3553 74.0334
CA 32.3437 1.38553 56.5769
CA 18.1198 -4.78615 72.5085
CA 5.76878 26.159 67.571
CA -9.85298 28.6223 53.234
CA 16.304 -0.32904 78.36
CA 4.77979 -14.0245 40.5786
CA -30.042 10.8744 41.4342
CA 17.2256 0.996886 68.7788
CA 18.9948 0.463654 67.9143
CA 7.93388 18.9597 53.7175
CA -25.4869 11.05 33.2089
CA 23.5698 -0.981895 67.4173
CA 21.4771 -27.2894 76.7781
CA 0.356305 16.8606 41.7529
CA 14.6479 -23.4886 73.2376
CA 11.5726 -33.2509 40.2738
CA -6.27359 2.11473 68.874
CA 32.5964 3.00403 59.2855
CA 19.1592 -1.48566 71.041
CA 22.4198 -30.5754 66.2292
CA -8.72394 4.3199 72.4549
CA -11.7135 -25.3796 70.0655
CA 18.2552 -7.35263 73.1209
CA 14.127 -13.7486 86.2844
CA -8.24483 32.0715 48.2511
CA 24.368 7.00989 48.6024
CA 4.46493 -2.10459 31.3091
CA 6.66373 -25.1983 77.6553
CA 8.62655 -17.8209 71.6743
CA -4.88275 28.6449 62.2983
CA 21.5452 17.5106 44.0987
CA 12.9937 -13.2376 84.7161
CA 26.4296 -10.3645 59.1928
CA -17.8108 -13.5312 78.6246
CA -17.0182 -19.2734 60.6894
CA 28.9191 5.88708 51.1544
CA 27.2608 1.99905 65.6664
CA -18.2331 -7.02987 59.7454
CA 8.34405 -14.7011 76.8233
CA 7.49883 2.20163 57.6899
CA -22.3407 10.4483 35.3106
CA 11.8981 -9.93776 85.5287
CA 19.9726 -17.465 71.4761
CA 6.84219 -8.01983 22.1587
CA -19.0866 -15.7958 76.2543
CA 8.52561 -25.5149 77.3426
CA 20.3535 23.2879 61.6776
CA -25.2823 13.8384 31.5805
CA 16.4089 -6.39085 76.6163
CA 15.4576 32.1678 66.3301
CA -17.8065 -34.1854 35.2677
CA 6.52501 16.04 56.3089
CA 15.2612 -7.37895 52.527
CA 13.8125 0.431074 16.3379
CA -17.8142 -17.0666 55.9896
CA 31.1239 -3.57299 56.1067
CA -20.7544 -20.4104 54.5169
CA 11.3677 -9.16377 72.9326
CA -16.9382 -19.8792 76.8632
CA 1.45248 6.41242 84.0954
CA 27.9876 15.9737 25.4163
CA 15.5499 -1.38133 68.9459
CA 12.7725 -18.1566 76.867
CA -5.05207 32.5072 48.6714
CA 17.749 -3.19449 68.2376
CA 14.7688 -2.23317 24.1123
CA 22.2514 3.62813 59.8979
CA 18.1921 2.59082 61.0756
CA 14.5512 2.65583 61.6234
CA 17.217 1.26149 83.5632
CA -27.2755 11.97 37.4063
CA 26.6509 15.4326 52.7481
CA -21.673 -5.84935 55.5856
CA -18.7092 30.1919 44.726
CA 18.2956 -25.1315 64.9724
CA 14.962 0.670102 65.3862
CA 5.67575 -6.69912 47.8781
CA 19.3516 13.7935 20.6976
CA 16.0702 5.26947 18.8489
CA 9.77379 -14.9428 22.9569
CA 21.5505 -20.3697 50.035
CA 16.3019 -7.26822 74.9103
CA 24.4818 -3.40504 75.3268
CA 9.91029 -10.402 73.1284
CA 29.0909 3.66536 64.5264
CA 18.6303 -4.07161 52.0201
CA 10.3101 -17.9445 80.2151
CA -5.29899 30.9419 74.8074
CA -0.533298 26.0111 75.1564
CA 33.7645 3.3612 60.6402
CA -6.28804 19.1367 40.7682
CA -24.2045 14.0623 35.9231
CA 3.57723 23.7809 65.1157
CA -11.5437 -27.2069 32.887
CA -7.77797 26.7539 65.911
CA -17.6131 32.109 70.2305
CA 10.6041 -6.4997 14.5027
CA 4.81555 9.48595 69.2462
CA -0.57502 15.6358 40.5859
CA 11.5087 18.0597 35.1414
CA -19.9022 -17.7505 57.8063
CA 14.5089 0.781273 71.7893
CA 15.5655 -0.912657 62.7448
CA -0.0917549 -18.5173 71.0951
CA 10.5837 -20.6082 27.295
CA 12.261 -9.29095 57.0487
CA 3.93888 -6.9298 83.9427
CA -17.4256 -6.35624 57.2333
CA -16.5722 17.6435 44.5475
CA 26.1248 16.4772 27.9553
CA -31.8914 -7.88537 34.3673
CA 7.64827 -22.5268 72.4584
CA 13.7485 -3.78959 20.0859
CA -33.4001 4.10076 40.0699
CA 22.4928 0.679138 68.7045
CA 19.2466 -28.2463 77.3939
CA 11.2233 -40.0578 62.1776
CA -25.8132 20.4358 32.42
CA 12.6212 -1.0842 69.668
CA 16.3007 -31.4506 83.8556
CA 11.4232 -24.5673 75.2468
CA 12.2519 -27.2258 76.4458
CA -0.127711 37.9685 39.5271
CA -7.86174 3.13482 70.6902
CA -0.499175 22.4635 44.6015
CA 20.609 -28.7298 45.1153
CA -22.2527 14.2586 38.903
CA -28.379 4.41158 43.6813
CA -16.0549 36.3962 41.3228
CA -1.06495 14.7753 70.9749
CA -5.78653 -14.9137 22.9716
CA 27.5503 7.36642 52.9137
CA 11.2523 16.6424 52.0213
CA 27.3019 18.9476 34.2409
CA 6.34637 -8.92823 40.0434
CA -26.4556 13.9898 57.2989
CA -6.86363 3.34928 74.4888
CA -6.58469 -10.0973 24.5083
CA 15.9551 -20.6011 85.2932
CA 24.05 22.2051 57.0158
CA -22.1454 12.181 33.485
CA 6.0764 11.6667 64.4877
CA -3.91264 16.4469 68.833
CA 18.2448 -1.10504 84.8451
CA 12.2735 -24.5684 80.5086
CA 24.1606 -24.838 56.4664
CA 10.9933 -17.6033 74.9501
CA 12.908 -32.7343 42.2957
CA 11.1009 -20.0564 69.3018
CA 26.1781 10.2528 52.3771
CA 18.8513 -6.55552 66.7892
CA -17.1222 -27.3351 68.1839
CA -1.50954 -40.6726 61.2235
CA 5.68388 -10.896 68.2677
CA 7.20702 4.42322 61.0143
CA 7.10984 23.6954 53.6143
CA -0.470144 22.906 36.8728
CA -10.1254 -10.3152 19.6934
CA 3.82742 -11.2522 36.0939
CA -1.24751 16.5261 44.223
CA -2.13337 2.39156 85.6896
CA 20.6293 -4.6336 48.3608
CA -11.0168 13.3089 68.8186
CA 4.00231 7.38901 69.8676
CA 16.8701 -29.677 65.855
CA 18.2741 -2.48466 21.0404
CA -6.54574 -3.43359 70.5388
CA 21.823 16.1584 56.0989
CA -20.266 6.51101 43.8438
CA -1.17177 -6.59791 69.3222
CA -24.8152 16.7022 54.7136
CA 5.51349 36.2662 58.3612
CA 18.4077 -7.44022 33.1883
CA 16.3225 19.3923 47.3355
CA -5.96193 34.4196 66.2962
CA 24.8334 7.02776 45.5454
CA -5.54445 -31.3238 64.1496
CA 22.5307 -23.8201 58.1323
CA 24.2423 20.0843 26.6041
CA -0.414793 25.1361 66.9788
CA -9.03091 -29.806 70.328
CA 14.3781 -21.6465 74.5069
CA -1.28453 -3.94647 47.5829
CA 27.4982 -5.89816 60.52
CA 38.3738 -1.87706 48.1407
CA 9.06514 -22.0078 75.6665
CA 18.8441 -22.4204 67.3888
CA 8.68893 -15.8884 71.6244
CA -22.4955 1.90516 74.1716
CA -7.14063 -12.5249 23.3305
CA -11.5634 25.422 47.9436
CA 1.72861 -37.143 60.3807
CA -3.7415 26.6653 61.6088
CA 17.097 -9.9031 69.9328
CA 15.5471 -4.36472 81.8769
CA 6.79788 -9.99381 54.5
CA 7.0318 -10.897 79.2219
CA 9.82384 -7.95874 39.5234
CA -5.55329 -2.06434 69.4304
CA 9.12117 -27.9708 40.8759
CA -28.2875 15.1249 54.416
CA -18.2138 21.7979 44.9145
CA 20.8133 16.5478 45.5976
CA -9.93982 -10.2257 25.3537
CA -24.374 15.2678 52.9414
CA -0.756525 -30.1307 63.5024
CA 30.3914 -0.123105 63.7674
CA 21.2226 -30.2564 44.0799
CA 20.387 18.957 47.2348
CA 3.84095 -17.4984 70.263
CA 6.55955 8.0415 65.7932
CA 8.69568 7.45223 65.8925
CA 28.2442 5.30995 47.3023
CA -18.6463 -3.55196 51.7713
CA 18.7594 12.3213 19.5624
CA 5.05347 0.693157 54.4127
CA 20.7665 0.689747 76.5269
CA 9.54549 -26.1368 73.0119
CA 18.0014 -9.67131 64.3175
CA 15.2892 -31.1811 45.2441
CA 0.761202 18.7143 37.1116
CA 6.80269 13.2806 72.947
CA 26.883 -2.04443 52.603
CA 38.8271 7.4589 51.7651
CA 12.5301 -30.4362 45.3728
CA 11.0706 -8.59998 37.2019
CA 5.92615 13.1675 59.6268
CA 19.4365 11.2905 22.4219
CA 16.5029 -1.26362 72.8569
CA 9.79874 -19.5331 75.0443
CA 4.2189 -9.00565 64.8859
CA 14.8907 1.49895 57.4583
CA 19.8926 -8.59556 36.5847
CA 17.9605 -3.25218 65.9287
CA -34.2722 -6.493 37.6918
CA 15.7012 -25.3527 71.9435
CA -1.76586 26.5834 65.0579
CA -20.1426 33.29 67.701
CA -15.3134 33.9657 43.8901
CA 9.86666 -25.4013 27.8588
CA -8.15104 7.84574 94.5284
CA -1.73943 -3.44874 45.3969
CA 12.2728 19.6984 55.7042
CA 3.04025 23.7944 49.9403
CA 26.5798 13.5733 52.1942
CA -22.4599 14.0221 51.9729
CA -5.11451 28.0277 67.8488
CA 9.01823 -2.10446 63.5937
CA -27.8377 19.4649 31.6179
CA -3.77581 34.7061 39.0389
CA -3.72994 30.9885 67.5422
CA 9.39676 -12.0629 87.894
CA -9.9846 -12.1403 24.2192
CA 13.0128 -20.1184 82.4963
CA -30.3897 13.3144 43.1104
CA 30.5344 -1.31169 51.6418
CA 2.88453 10.4972 75.1106
CA 23.3731 6.90572 46.7577
CA 16.1596 -26.4788 80.2566
CA -15.6322 16.7249 25.5394
CA 9.98388 -5.04468 53.3619
CA 21.278 21.3591 33.3145
CA 14.4514 -29.4557 45.4153
CA 26.9286 -4.02214 62.6444
CA 9.08639 -8.63373 46.2203
CA 8.99243 -15.3076 84.991
CA 8.17241 -8.55207 78.8794
CA 2.91938 15.1581 18.7176
CA 0.155484 20.5221 77.1985
CA -8.86259 -29.606 73.2255
CA 14.0486 3.78763 65.176
CA -22.1558 15.1887 34.1944
CA 16.2565 0.241727 73.9516
CA -15.5899 33.0117 45.9179
CA 1.30776 40.1064 62.0002
CA 13.5544 -8.18728 73.5817
CA -16.3257 31.0437 46.3284
CA -6.29559 25.1387 40.5419
CA 20.1971 -22.2448 70.4964
CA 2.17975 -10.295 76.7201
CA 10.6611 -6.80554 58.8252
CA 22.8855 -33.176 78.2606
CA -3.49474 11.452 85.382
CA 8.90113 -7.90812 55.3602
CA 29.398 -6.65437 47.1287
CA 30.353 8.58006 52.0257
CA -18.8983 32.3964 42.4304
CA 5.62732 16.0748 60.3382
CA 19.473 -17.2987 68.9411
CA 27.8719 -1.7007 60.9989
CA 10.1219 2.36414 60.2823
CA -7.64659 17.4444 67.4373
CA 10.1747 -33.8915 35.9795
CA 7.36291 -11.7639 69.8019
CA 1.34372 23.9799 40.8941
CA 14.1194 1.70662 79.7866
CA 3.99316 -9.57878 70.3107
CA -24.3007 -13.06 19.6192
CA 0.0911028 -4.52001 50.822
CA 2.62681 1.82479 63.6099
CA 28.2335 -4.31874 55.1277
CA 26.5598 22.2183 62.5536
CA -16.1184 -21.2499 77.9132
CA 9.8731 -9.75376 54.4932
CA 24.0148 16.6999 43.9903
CA -0.561224 -38.0576 62.0796
CA 23.4402 23.6895 25.7125
CA -19.0133 0.139263 53.2714
CA 25.1762 9.71672 46.3047
CA -7.31532 -6.09665 54.1885
CA 10.432 -8.64058 82.5955
CA 7.5314 -19.0945 41.7814
CA 10.087 -32.899 41.259
CA -11.7782 30.4826 55.4344
CA -1.96797 23.4386 40.5671
CA -1.2127 35.1887 38.9947
CA 24.0595 27.3024 25.9738
CA 2.97879 17.7843 14.7289
CA -3.03847 12.9738 70.2041
CA -19.2173 18.7273 48.0217
CA 10.0424 8.47159 68.2502
CA 5.47488 -13.3689 73.7448
CA -1.28558 26.3297 68.7952
CA 9.81685 -20.1205 83.5632
CA -34.8757 8.30031 66.1262
CA -13.3628 -19.6834 52.7027
CA -23.7189 13.8843 33.7784
CA -19.1217 -33.1233 33.3282
CA -8.28605 24.8357 39.7397
CA 24.8178 -4.52921 66.0464
CA -14.2591 -28.0703 70.6056
CA 5.00875 25.728 37.6153
CA -29.8569 -9.56895 35.3419
CA 8.65646 17.3996 59.0906
CA 21.2664 13.1782 46.6697
CA -4.72008 26.524 70.1199
CA 9.56994 -8.71136 61.4542
CA 33.6487 -0.35846 47.9921
CA 7.66195 -7.19351 82.5132
CA -11.7132 30.9881 44.8266
CA 20.4012 -4.3397 75.4714
CA -5.95982 22.6237 43.6518
CA 7.19203 -29.8913 40.9758
CA 16.5923 -9.14142 72.0422
CA -13.9225 32.5214 43.4977
CA 25.9725 -9.60929 61.7615
CA 7.56189 -7.13278 37.3087
CA 15.0262 3.19291 80.7083
CA 16.7569 16.2316 45.287
CA 29.2251 -6.40383 59.2519
CA -29.4884 15.0125 32.7288
CA 5.45948 -14.1005 82.5313
CA 3.14112 17.2427 33.1879
CA -10.0444 5.52147 87.7068
CA -4.14867 4.10377 66.9371
CA -17.4536 0.0704095 50.3932
CA 10.5804 -14.5416 82.5462
CA -14.2199 -24.3474 74.4335
CA -4.1555 2.08078 68.6439
CA 22.5505 -6.06444 22.0739
CA 15.8044 29.6467 66.5332
CA 22.7442 9.12698 45.8692
CA 5.98106 -12.3371 78.538
CA 22.6312 15.4291 52.6816
CA 15.0845 -19.7204 75.7966
CA 20.8666 -25.1696 79.7882
CA 28.9143 4.8162 62.5992
CA 17.2979 -26.4603 82.6927
CA 6.05671 3.4231 66.2589
CA 10.6281 -7.86941 54.1501
CA 31.4553 13.486 50.9614
CA 9.19021 -25.418 70.3103
CA 25.9797 12.3313 54.6398
CA 28.6738 0.285515 48.656
CA 6.08999 -26.4259 40.506
CA 20.5954 16.8078 39.9172
CA 10.9316 -17.5767 64.5699
CA 20.0869 -22.9113 64.0252
CA 13.6305 3.93853 75.5698
CA 9.22792 -15.7376 42.3206
CA 19.4078 1.88684 63.0652
CA 20.9559 -1.53811 10.6408
CA 19.6936 7.59944 24.2639
CA -7.27329 -8.40405 24.959
CA 23.9343 24.7583 36.059
CA 4.84234 7.13195 63.2029
CA 0.860432 9.71571 68.2312
CA 5.84572 31.3826 61.6386
CA -16.8134 3.73515 47.7114
CA 14.6357 6.70902 18.0133
CA 0.0116869 -6.5267 67.8566
CA -3.9553 16.8376 66.4132
CA -2.82889 26.2181 44.7041
CA -0.994697 29.0507 72.4972
CA -19.7687 2.07356 43.4546
CA 12.272 -2.08465 23.7801
CA -14.6831 -7.26082 24.0288
CA 16.8158 0.525411 17.0814
