489

CA 26.5409 20.9362 35.1573
CA 11.8258 -8.70247 70.6734
CA 0.195241 7.94514 56.4181
CA 34.706 21.8797 50.6433
CA 18.0775 20.1489 15.1394
CA 34.2625 1.29166 42.1421
CA -0.621839 -20.5657 86.5999
CA 22.511 22.2692 61.4647
CA 15.898 18.9204 73.2557
CA 14.6003 -4.4967 92.9945
CA 28.5506 15.3444 80.5977
CA 29.8404 7.53398 37.1401
CA 0.166898 -3.47598 63.6114
CA 21.8716 17.4752 14.5095
CA 0.362653 -13.9091 75.7487
CA 21.4378 -0.801418 81.059
CA 13.8083 13.9884 64.3585
CA -11.7306 -5.99609 56.5569
CA 23.1928 -12.1789 46.7532
CA 25.8697 -0.595884 80.821
CA 9.67431 -13.2754 68.7031
CA 18.3039 8.77781 63.5126
CA 16.3618 14.9864 47.2739
CA 14.9609 -14.0712 67.5303
CA 26.8437 -0.102248 51.3758
CA 9.97068 1.36054 92.4167
CA 16.2095 -4.58812 87.1832
CA 16.5277 16.9658 68.5448
CA 7.22048 -21.7953 83.7124
CA 29.373 -4.9036 45.331
CA 2.22485 7.63871 73.6977
CA 6.85872 6.8844 51.0451
CA 2.81074 -23.0541 79.2835
CA -11.2399 -1.85194 37.1154
CA 22.8581 7.5369 69.8482
CA 37.3173 19.8585 45.1365
CA 18.6453 -17.5727 65.6181
CA 18.7743 27.7752 14.5946
CA 12.9263 -2.6646 88.5654
CA 8.13458 11.5988 79.7076
CA 19.3991 10.4701 30.281
CA 24.8338 23.2208 30.8327
CA 11.4397 -4.48593 92.4685
CA 11.6766 2.27829 73.8112
CA 5.18174 -9.73848 42.9197
CA -16.7334 5.13163 32.8196
CA 8.37437 -9.4119 44.1536
CA 1.85706 -23.1849 81.142
CA -2.82592 11.4211 53.5158
CA 19.7262 -9.98536 34.3279
CA 1.80593 -9.50799 81.6871
CA 13.1866 -6.14654 50.854
CA -8.98586 6.13822 43.3089
CA 37.4574 28.7335 42.4602
CA 26.1646 -9.23696 52.2134
CA 2.30445 3.29618 69.436
CA -0.874794 8.90925 72.3508
CA -11.6299 25.569 42.6035
CA 21.3194 -4.52137 53.3943
CA 18.2908 18.2778 56.0632
CA 10.6952 -6.58105 74.58
CA 29.1693 15.5017 57.8842
CA 3.88156 9.90074 81.2249
CA 32.4556 3.16997 54.01
CA 7.99268 -7.0188 37.4191
CA 11.574 -2.67464 91.1861
CA 23.9539 0.849968 35.0415
CA 6.67498 0.865389 88.1951
CA 16.7189 6.7473 43.6328
CA 19.7485 18.3075 9.0067
CA 7.35852 -5.52443 74.3025
CA 24.9692 16.5375 57.1135
CA 12.038 -5.98023 93.9636
CA 8.56629 14.5213 56.8116
CA -19.0388 -2.61238 48.3465
CA 9.87735 10.5904 81.6919
CA 5.748 14.3715 46.5214
CA -6.26277 18.5365 47.1668
CA 25.5567 12.4058 34.177
CA -0.544183 3.53809 65.5063
CA 24.5817 -0.116917 72.29
CA 8.7766 23.5703 60.276
CA -2.388 -2.10476 77.6761
CA 2.54658 -10.5538 86.5262
CA 13.5176 3.14102 68.7359
CA 9.10824 -2.93512 79.4512
CA 6.07718 18.0183 61.719
CA 31.7035 20.5129 50.0626
CA 11.6755 -10.4569 41.0362
CA 19.9716 -5.34795 90.5616
CA 13.2907 -9.8196 51.3905
CA -16.6087 -7.12722 50.9025
CA 27.8781 13.5553 36.7304
CA 35.7112 14.0632 51.2239
CA 33.9633 -1.04218 38.3085
CA -9.97983 -1.14735 65.3257
CA 16.2675 -5.88085 41.0434
CA 29.6069 2.17721 41.4491
CA 20.0586 -0.245151 37.2035
CA 6.67827 14.9167 50.5912
CA 13.1886 -11.1803 44.2087
CA 5.99441 7.53647 81.9245
CA 10.8164 0.539332 74.3454
CA -13.0575 11.8216 44.4193
CA -17.9148 0.944519 46.4363
CA 18.9921 -4.71279 52.504
CA -15.1632 4.26208 66.5391
CA 24.2251 8.56917 68.6314
CA 6.21487 -3.72384 76.0719
CA 16.9498 19.8737 64.0689
CA 13.1616 22.277 68.3134
CA -19.6011 0.765638 55.6526
CA 20.3715 -2.74417 49.5905
CA 26.6952 -3.91773 37.1928
CA 19.7133 3.97838 77.4199
CA 21.76 -4.52547 44.7428
CA 17.1505 17.4863 17.7591
CA 21.3771 1.38098 86.6601
CA 5.95864 23.0461 59.7083
CA 17.2559 15.024 28.3066
CA 14.7844 -7.19209 50.6334
CA -1.18938 -1.94551 39.3301
CA 28.3087 19.5775 57.0234
CA 24.3153 24.0188 63.8616
CA 11.1712 -23.8076 79.5803
CA 20.2963 -1.43162 48.1434
CA -0.405101 10.5762 58.4636
CA 7.79057 0.868359 68.4452
CA -7.85527 9.64036 47.7588
CA -10.9955 21.3942 43.7613
CA -9.58818 -1.96687 61.4357
CA -5.05921 -6.56252 79.7234
CA 23.303 8.54718 34.9381
CA -2.39358 -4.01788 83.018
CA 29.0802 17.4527 56.7869
CA 10.447 -1.87963 59.9505
CA 25.1919 -3.29393 55.72
CA 34.2412 22.3866 41.4756
CA -17.5407 -3.66605 40.4427
CA -9.10374 2.29077 42.5268
CA 16.4062 10.8664 60.7282
CA 39.672 16.7261 53.168
CA 8.27088 3.61733 54.2443
CA 10.8377 -1.81528 62.9143
CA 16.3645 -17.7228 34.0125
CA 16.0054 16.7752 43.0813
CA -12.1943 1.83842 47.5305
CA 0.575558 -2.00987 51.1817
CA 16.0845 -17.6018 59.1749
CA 20.6079 13.0845 51.5158
CA 22.8151 -4.05948 38.5778
CA 28.3587 17.5029 80.2239
CA 0.237707 4.03233 77.1232
CA 5.80739 -15.7717 72.4964
CA 22.7324 21.4309 58.4268
CA 6.31433 -13.773 78.4041
CA 5.5325 -13.8152 72.5886
CA 22.6664 10.5234 65.6086
CA 14.71 -19.5277 70.1698
CA 37.9755 22.3323 59.5456
CA 12.0047 19.1736 56.2432
CA 3.10175 22.6643 65.2698
CA -13.2736 -2.54133 56.3194
CA 9.8934 -1.73391 67.3642
CA 13.2411 -7.93739 66.8556
CA 6.67553 -21.3087 81.9981
CA 29.5363 10.1251 59.9506
CA 14.3944 23.025 66.1827
CA -5.82671 -0.955927 63.5407
CA 8.61931 18.0693 58.6045
CA 23.1469 -3.30828 46.5001
CA -2.83313 -14.1234 74.5371
CA 2.9401 -13.1312 83.1937
CA -8.98706 -0.775246 57.8876
CA 9.10229 0.0234946 66.0157
CA -14.9606 -1.347 36.2241
CA 4.57764 3.57594 54.2294
CA -6.87355 -2.45415 61.3344
CA 26.1959 23.5622 47.9364
CA 1.92717 21.4663 66.3387
CA 26.9138 4.74747 45.3083
CA 7.54863 4.48725 60.9767
CA -15.1715 -2.59339 62.664
CA 8.16849 -13.6502 51.8684
CA 3.61703 3.82399 65.1808
CA 8.09609 -14.3048 74.7106
CA 12.9979 2.19808 71.8453
CA -11.5295 12.1686 50.7231
CA 20.5885 -13.5781 43.9967
CA -10.6827 11.6463 56.5834
CA 12.6821 -11.8302 71.509
CA 22.9937 23.2367 59.1513
CA 4.39968 1.73178 68.356
CA 7.95415 9.67562 48.1836
CA 24.5434 9.39899 70.3457
CA 29.64 -8.41817 54.9141
CA 12.0287 -5.68076 95.8695
CA 1.0844 -11.121 45.1044
CA 2.11251 13.3424 56.6605
CA 17.461 2.74986 35.1615
CA -10.5218 7.87362 50.1838
CA 8.12686 -15.241 69.8683
CA 27.2211 8.48244 37.6665
CA 12.7545 -13.0037 43.6153
CA 21.7037 0.691452 78.1618
CA 13.5446 -10.2258 72.3857
CA 17.8064 -8.22204 41.1099
CA 23.8885 22.9399 57.1101
CA -13.7114 -4.46284 56.9042
CA 9.68545 1.03938 84.3845
CA 14.0243 -18.5993 68.3728
CA -5.96866 16.3953 59.3117
CA 4.2757 6.02997 57.3555
CA 20.7896 14.562 44.9025
CA 28.8488 8.58546 35.7027
CA 35.9838 21.2618 45.0925
CA 19.6315 11.9547 39.5441
CA 21.1071 21.4543 49.9544
CA 12.7775 -0.389455 81.0818
CA -9.78148 3.83794 45.0621
CA 14.2656 -11.5595 46.3585
CA 15.7381 15.8596 66.2942
CA 5.94314 -14.6431 42.5603
CA 2.26605 5.05238 70.8984
CA -5.83294 14.9494 58.0517
CA 14.4678 15.7908 53.0798
CA 17.2716 -13.0483 33.9052
CA -15.0873 -3.00669 45.2083
CA 18.3391 0.765371 42.9346
CA 13.193 15.4413 65.633
CA 2.40756 9.95362 75.4907
CA 27.8511 -0.358923 75.1549
CA 12.8021 15.734 45.4575
CA 0.00842232 5.71133 61.4756
CA 38.5899 24.1005 42.4216
CA 5.93534 6.67576 52.7297
CA 21.2133 -2.0377 38.4052
CA 15.0214 6.86115 70.8448
CA 12.1293 22.5721 44.5503
CA 6.05511 -21.6717 79.4642
CA 17.0423 -2.35499 96.9053
CA 0.369665 -10.8969 41.2381
CA 4.30581 5.9413 72.6393
CA 31.2474 -0.920013 39.9017
CA 12.96 4.82983 75.2345
CA 4.07077 -3.86323 60.6325
CA 9.40629 -6.43827 93.0467
CA 22.4429 -15.8882 64.3852
CA 2.99125 -1.75458 52.9327
CA -9.56095 -7.08123 57.7051
CA 14.6955 23.814 70.2128
CA 0.187083 -7.99378 45.9841
CA 21.257 10.6697 86.9051
CA 3.61537 1.04276 53.2092
CA -3.2663 -20.6465 81.197
CA 22.5755 20.2578 51.479
CA -10.358 1.47197 64.8926
CA 4.31837 22.0526 64.0511
CA 37.0066 13.373 53.1855
CA 16.5647 19.5668 17.5599
CA 21.6806 7.13658 73.3145
CA -2.33511 -5.30338 42.0679
CA 19.8143 16.5228 12.5455
CA -14.2327 -1.02697 46.8912
CA 1.45985 9.38964 58.3984
CA 15.4914 25.3471 16.4189
CA 13.2355 20.4632 44.7788
CA 35.102 26.4741 44.3942
CA 16.9696 12.3138 75.0007
CA 16.8755 -9.64204 72.4739
CA 12.6126 20.4946 70.7915
CA 11.8744 7.82781 69.1668
CA 5.84687 9.06706 84.809
CA -16.5933 -4.24941 36.5243
CA 5.86273 -14.116 75.4837
CA 21.3955 7.29847 65.4986
CA 21.4867 2.11232 41.4934
CA -14.6144 -4.67991 39.2724
CA -12.9638 14.8985 49.6469
CA 31.7376 5.0349 42.6141
CA -3.01569 -6.36049 81.7116
CA 28.4191 -3.76554 35.8419
CA 29.3862 1.74988 53.4061
CA 15.2234 -11.9493 72.1568
CA -15.6937 1.67361 51.3887
CA -16.6634 3.96591 36.0707
CA 8.87642 -8.62155 39.2122
CA 25.0919 0.890869 67.5016
CA 4.68415 -1.85274 77.7629
CA 20.2022 -10.1586 72.371
CA 14.7441 4.67382 74.1045
CA 9.3442 -13.4881 53.4827
CA -3.11689 -20.8498 83.8455
CA 0.641013 -4.41698 82.5185
CA -7.01239 17.405 56.5309
CA 14.0479 11.9408 65.4012
CA 17.0244 17.5404 64.587
CA 22.0169 -5.87545 48.2164
CA 11.5045 4.40466 71.9384
CA 22.1603 1.58955 36.1301
CA 12.2896 -3.16434 76.8678
CA 28.8882 19.7377 52.6118
CA -10.4678 1.18947 39.6467
CA 9.50041 -14.4655 71.7608
CA 19.3076 -3.66939 89.24
CA 13.3998 16.9958 52.1483
CA 19.8773 -14.1499 72.9861
CA 24.9907 10.4277 67.1472
CA -6.78562 0.862427 62.5185
CA -16.3298 12.9302 49.4783
CA -7.19978 -4.31233 65.6566
CA 17.8389 15.2228 53.0582
CA 27.2885 -12.4821 53.4566
CA 12.8419 -2.96282 57.7995
CA 14.3017 18.3579 45.0453
CA 23.6805 10.9507 33.2413
CA 18.5296 16.8282 54.2015
CA 1.12421 -20.2514 81.0578
CA 3.81451 -0.122665 84.0324
CA 26.8474 18 69.0516
CA -13.0238 15.1061 46.5384
CA 7.84299 20.399 60.2192
CA 18.5445 -7.85641 75.2676
CA 5.45604 2.27179 57.8509
CA 1.09259 22.5453 61.989
CA 17.1236 -8.04933 36.8442
CA 12.3191 1.20052 89.7602
CA -11.6449 4.9068 63.348
CA 15.7437 -10.295 68.1841
CA 21.5846 24.097 64.553
CA 6.89396 5.19369 49.0642
CA 14.3065 15.8134 21.803
CA -4.17338 18.5465 44.1035
CA 29.4626 0.298829 40.2144
CA 16.7256 9.38044 76.1622
CA 19.3419 0.397404 79.3347
CA -2.04659 23.0554 61.8637
CA 34.6584 22.7231 43.3678
CA 19.3583 1.63086 45.0538
CA 27.6688 8.05729 74.7076
CA 18.3447 -3.59383 81.4518
CA -23.7116 2.21049 56.536
CA 15.9756 6.27685 54.6258
CA 27.7541 10.7386 52.4056
CA -15.0707 14.9805 44.2595
CA 7.93391 -15.1236 84.2912
CA 3.90344 -0.965844 60.9568
CA 6.56821 4.78595 86.8159
CA 9.0536 -9.84737 71.7153
CA 19.7651 8.67629 43.2169
CA -3.54775 3.13101 61.753
CA 23.8983 10.1716 62.1756
CA -17.0004 15.6856 42.4399
CA 7.85008 8.44977 55.3082
CA 23.3876 -4.10587 43.6502
CA 28.5368 16.314 72.8099
CA 26.3457 12.3609 57.2438
CA 26.9648 10.0754 36.7477
CA 11.2103 -17.829 67.9931
CA 15.9826 21.8885 17.9544
CA 9.4882 3.75887 84.6347
CA 40.8032 21.9142 55.539
CA 11.2791 10.3815 54.6607
CA -15.8291 -2.50817 38.928
CA 11.6769 21.783 64.4958
CA 12.3316 -2.21362 72.0788
CA 19.926 3.89807 42.0018
CA 26.1389 12.8533 84.3633
CA -11.4463 16.4055 45.6791
CA 30.8 15.6542 61.4389
CA 23.5104 11.544 86.3381
CA 22.941 12.1815 48.5832
CA 22.47 2.99807 68.7176
CA -11.5592 -2.00887 40.322
CA 5.04025 7.08466 59.4147
CA -7.29356 4.8889 46.9236
CA 23.224 7.44197 66.9829
CA 4.84183 4.63139 59.8413
CA -16.3331 -5.11572 53.1118
CA 18.249 2.85078 41.0436
CA 12.3981 16.0465 54.0247
CA -0.698461 -1.47545 79.5095
CA 4.81324 -15.9704 70.4832
CA 1.10639 4.55884 62.8671
CA 12.5425 9.84609 79.7102
CA 15.1004 -3.33243 73.4199
CA 15.3139 3.44285 85.6401
CA 31.219 7.48533 58.4497
CA 19.1471 -6.80182 87.664
CA 9.74249 -19.2984 72.6575
CA 10.3259 0.600328 80.1015
CA 13.2609 -7.836 47.6942
CA 22.0597 18.2412 37.2091
CA -18.5336 -3.50811 52.9087
CA 10.9406 8.19902 86.0585
CA 30.0602 19.4282 48.3725
CA 16.2053 -12.003 67.4671
CA -6.58792 5.32291 64.1633
CA 29.2474 8.33098 53.6937
CA 7.62263 -6.89544 78.3748
CA -6.54283 -6.18185 68.2733
CA 23.3167 19.0558 12.9769
CA 8.34371 20.1501 56.6691
CA -14.693 2.0659 47.8272
CA 14.0847 -11.9218 66.6679
CA 11.7498 20.0562 60.1404
CA 30.0774 -0.127905 67.8924
CA -5.87288 -1.00752 59.8452
CA 15.3442 -6.22976 92.3502
CA -7.32979 5.56699 44.4699
CA 5.58897 -6.40933 53.8732
CA 22.928 0.547626 69.4724
CA 25.5382 -4.12029 46.4246
CA 14.6064 -7.03733 32.3329
CA 14.0295 -15.4714 68.8736
CA 24.149 1.95814 70.2888
CA 15.9916 26.2607 12.5525
CA 23.333 15.7868 66.1737
CA 30.8436 -3.60938 60.5386
CA 12.6397 -13.2497 67.7373
CA -12.4648 6.33812 47.5801
CA 4.84975 6.92612 48.271
CA -9.20382 3.17753 66.8588
CA -6.60794 -5.13103 61.4884
CA -9.52948 -4.9867 66.0779
CA 26.8743 18.1534 53.1376
CA 30.9915 6.17815 57.1504
CA 5.85919 -8.38558 44.3932
CA 24.419 13.4616 45.3542
CA 37.5862 13.3394 48.0287
CA 0.696283 5.82973 71.9398
CA 20.4496 0.270672 35.1483
CA 33.7202 20.4215 47.5434
CA 21.1746 -5.65731 84.6834
CA 38.0018 14.9437 51.5757
CA 1.67708 -3.49243 39.6363
CA 19.898 3.17575 83.692
CA 19.9508 1.68269 39.7282
CA 9.64222 -23.1013 82.4245
CA 20.3393 10.0063 55.2045
CA 25.0376 -13.2838 42.8829
CA 8.50395 -8.16126 76.1063
CA 7.04959 20.6819 62.4235
CA -1.63153 19.4104 39.8586
CA 9.19957 3.05206 90.1184
CA 15.8307 16.426 26.7886
CA 37.2803 19.8684 53.4916
CA 4.7469 6.41018 61.3444
CA 17.7393 19.1732 59.0584
CA 30.9243 -3.57731 35.804
CA 15.5865 10.2538 74.744
CA -0.228564 -18.0365 82.7441
CA -2.59527 -5.82488 78.4765
CA 27.8467 -1.56375 53.3404
CA 14.4121 19.143 66.0214
CA 20.2922 15.6361 9.80704
CA 5.86575 20.3174 59.9134
CA 13.6129 -3.8919 74.4606
CA 5.77093 -16.4697 74.4231
CA 15.5012 16.1686 39.7735
CA -16.6102 17.2888 45.3544
CA 14.8501 -22.8444 81.9161
CA 39.4194 24.3775 44.0269
CA -18.1407 2.07537 53.3541
CA 24.7855 3.43 33.4633
CA 16.5806 -9.95454 44.004
CA 8.81904 18.611 47.0982
CA 25.0167 22.1034 52.8201
CA 24.6311 24.2384 55.7822
CA 1.26422 -17.4101 77.5246
CA 6.23915 4.77583 90.3703
CA 32.4418 21.9442 52.0271
CA 19.0418 -11.043 30.8334
CA 27.0832 0.321075 69.8356
CA 28.6939 -4.68439 57.3167
CA 16.3511 18.023 53.3736
CA 24.9206 8.42998 38.7232
CA 27.3914 14.8043 76.227
CA 42.3323 20.6139 58.3992
CA -11.6466 -7.41655 67.9246
CA 16.7993 3.61128 80.8802
CA -0.645985 -2.84378 76.1263
CA -6.36965 13.0016 57.3829
CA 16.3852 15.4572 41.8375
CA 20.4536 14.4534 34.6857
CA 21.3306 -12.3851 77.1496
CA 12.0216 -9.06295 44.4718
CA 15.2471 8.85949 73.4614
CA 7.06469 18.5985 52.7671
