489

CA 19.4713 1.63817 43.6577
CA 29.0676 -10.0679 43.1535
CA 8.79235 0.270154 85.0715
CA -7.19351 19.7117 72.9649
CA -1.00731 -5.73423 50.1127
CA 23.6277 15.1797 59.5235
CA 18.3066 -5.00473 47.1814
CA 18.9116 17.6921 74.8656
CA 21.8957 14.9757 53.4185
CA 14.7982 21.1137 12.1352
CA 28.5506 15.3444 80.5977
CA 6.76923 1.64211 66.1171
CA 5.18094 21.3705 48.7184
CA -7.55984 17.2127 77.3004
CA 23.6595 23.5576 36.0063
CA 25.3623 18.6952 59.4417
CA 13.6558 13.8792 46.3321
CA 25.6505 0.481167 82.9809
CA 38.206 3.43686 48.0792
CA -1.5358 -7.3673 52.5165
CA -1.56947 -2.35054 43.6538
CA 20.5883 1.11038 88.1698
CA -6.94408 -3.07717 63.3815
CA -1.36889 -2.50104 66.2159
CA 8.78527 -1.67178 61.8292
CA 39.9987 4.50327 45.0816
CA 19.1972 9.16833 60.9225
CA 11.7452 18.8054 10.954
CA 18.3841 25.777 16.0415
CA 14.5274 -4.8779 56.9375
CA 12.9251 -13.2701 63.12
CA 7.2688 -4.28502 74.3317
CA 25.7634 17.3335 63.362
CA 38.0471 13.3211 49.2637
CA 10.6231 16.0501 51.4039
CA 9.28514 18.5162 65.9719
CA 6.8905 7.03079 81.7263
CA 19.0195 14.1335 46.3656
CA 4.3803 -12.4605 86.0884
CA -7.32537 5.27914 41.3325
CA 11.9795 -2.86491 85.3251
CA 38.3578 13.932 51.3176
CA -10.1046 1.5714 41.8341
CA 25.5611 -2.5613 73.869
CA 5.13639 9.34415 83.7697
CA 6.39524 0.0426866 68.6781
CA 3.01584 -11.7348 82.0268
CA 28.0983 9.66632 79.4585
CA 21.4059 17.2734 54.9115
CA 22.4491 6.80902 72.577
CA 19.1602 -3.13114 66.7166
CA 15.3342 3.75264 53.3119
CA 2.62114 -2.54282 72.8087
CA 7.88338 -18.3343 84.9037
CA 32.1058 -0.475459 37.8615
CA 18.5922 20.4758 52.9499
CA 10.0176 -12.28 44.9438
CA 12.9543 -12.4834 57.4676
CA 20.3587 -8.71046 46.6848
CA 4.50181 -16.5884 76.4501
CA 18.404 20.294 40.0888
CA 24.6036 -15.7945 49.034
CA 9.60087 -5.42899 74.6132
CA -5.02269 17.8898 75.1635
CA 13.7883 -10.8648 47.8951
CA 11.97 4.31752 33.7681
CA 13.339 23.1699 58.1281
CA 27.4139 -0.0242396 43.8179
CA 31.6066 20.0405 45.3626
CA 19.1617 17.7234 68.5752
CA -15.5466 8.68289 45.0159
CA 33.5605 -4.00088 34.0915
CA 4.6908 -13.9961 54.3501
CA 35.8488 16.6255 42.5362
CA -19.0388 -2.61238 48.3465
CA -21.2197 1.12381 45.0157
CA 21.2184 15.1434 36.5904
CA 28.9105 22.1743 32.0563
CA 31.3504 23.9782 71.5501
CA -1.58199 11.5239 75.4008
CA -5.40559 -6.4196 39.8506
CA 11.5442 -1.73172 71.5189
CA 18.9051 -18.4736 68.0318
CA -0.718736 -20.8271 85.8896
CA -9.22714 6.16568 46.9996
CA 13.4528 8.16268 89.6197
CA 10.1385 -16.8667 74.8646
CA 22.4867 -10.0326 68.3683
CA 25.3317 18.2006 71.9023
CA 13.5777 -11.9146 51.2577
CA -0.537051 3.37445 60.5574
CA 20.9018 22.9494 17.6324
CA 10.6499 6.17211 90.5669
CA 18.4097 11.268 67.973
CA 6.45832 -20.379 56.8022
CA 20.5855 11.3801 30.9443
CA 15.2833 12.1724 47.7089
CA 42.5516 3.86504 45.1459
CA 16.076 17.6976 54.6441
CA 17.7916 -9.88174 51.0242
CA 14.8762 -4.71947 66.5271
CA 8.58705 -17.8948 76.4335
CA 41.3978 9.56795 50.9539
CA 12.6416 20.7828 69.6999
CA 16.8075 -12.4261 36.0065
CA 20.0426 14.1662 66.7913
CA 24.0336 23.412 31.9362
CA 14.2933 8.9568 47.9396
CA -5.40034 -5.15108 51.0864
CA -5.36007 17.1661 80.5438
CA 34.389 19.6954 46.5865
CA 14.8005 -20.8188 71.1
CA 15.9938 19.6839 14.7814
CA 29.3246 10.3695 55.3533
CA 8.04844 5.38061 80.9409
CA 0.237641 -5.84254 41.3241
CA 29.3767 16.5769 34.9712
CA 0.67265 11.9261 63.2478
CA 11.4089 10.004 62.2405
CA 29.7389 10.3016 75.2885
CA 8.24633 5.61952 76.4216
CA -1.07472 9.0206 58.4378
CA 9.22859 -12.0898 64.0891
CA 27.4693 17.6604 61.6812
CA 9.2482 -3.47173 86.182
CA 16.7396 -14.2796 57.2877
CA 19.8793 10.3182 64.3855
CA 1.77315 19.8536 60.2791
CA 19.3415 -11.4008 50.1708
CA -4.12894 8.1301 56.2064
CA 23.7196 19.0798 29.1299
CA -1.505 11.129 50.0527
CA 17.9276 13.7256 87.3166
CA -5.12222 -3.53055 62.6664
CA 13.2 7.21974 72.7414
CA 19.3828 -14.9315 70.4571
CA 24.8566 16.5589 70.7464
CA 10.9845 -0.796271 69.8399
CA 20.085 13.3607 64.9182
CA -9.37305 19.3818 79.0534
CA -2.09653 6.11106 62.1517
CA -7.68303 -5.8359 43.6083
CA 21.8114 22.0352 16.0965
CA 17.6432 3.80808 66.4778
CA 24.0184 -3.41407 46.6857
CA 21.4119 24.659 31.5611
CA 3.01895 -14.6573 39.9568
CA -0.681302 0.995579 59.8865
CA 2.89578 -15.0647 73.7416
CA 11.6458 -3.5412 91.3018
CA 20.7102 18.9966 42.6647
CA 24.6324 13.9898 56.6773
CA 40.1151 3.73825 52.939
CA 27.9051 -7.42606 48.452
CA 6.54245 8.25462 68.4747
CA 19.171 -2.24738 46.839
CA 10.3373 -13.9849 85.5719
CA 28.0541 19.6898 60.491
CA 21.6018 10.2625 53.6544
CA 24.4079 19.0531 32.9866
CA -1.5787 -4.81306 66.104
CA -4.09367 14.3589 48.6958
CA 9.51533 17.8255 50.2381
CA 16.4885 0.444515 37.0708
CA 10.6736 17.8051 68.6072
CA 20.1021 13.1096 74.8671
CA 24.9823 -0.352731 45.0781
CA 6.77315 2.40716 71.7233
CA 20.2777 -9.30897 70.6942
CA 23.685 6.08995 74.2985
CA 32.5185 8.43326 67.6522
CA -16.0282 7.22631 47.3484
CA 24.3604 18.4996 66.9079
CA 17.506 -4.70428 50.233
CA 17.4834 1.0464 31.5098
CA -5.21772 -2.70484 39.1114
CA 18.3835 -12.3647 43.4104
CA 20.6101 7.55445 75.7623
CA 22.0192 18.382 56.244
CA 9.60325 -17.4254 60.3713
CA 8.72532 20.598 52.6782
CA 6.80843 -17.2926 59.5331
CA 14.9515 -8.94446 52.4522
CA 41.4838 2.37032 57.5866
CA 39.3873 17.1489 50.1864
CA 32.0165 -2.64017 34.8635
CA 17.556 11.1278 36.4685
CA -0.445974 12.1644 64.6989
CA 6.90885 -13.3661 85.2563
CA 14.5383 4.13386 81.7416
CA 20.5275 5.55582 35.6611
CA -2.14346 5.40872 65.516
CA 17.1309 17.1122 68.1749
CA -12.5921 5.68457 43.6636
CA 17.8412 17.0346 49.6912
CA 1.02769 6.49321 70.5118
CA 19.0354 19.2904 29.716
CA 12.9585 -10.8376 45.0685
CA 14.4847 -8.62979 50.5541
CA 19.3632 -12.7378 60.6992
CA 21.1819 7.98198 73.6971
CA 11.7422 -14.3975 64.4991
CA -1.52242 -7.84683 37.9749
CA 17.4715 19.9817 25.0954
CA 9.59158 -13.3796 39.132
CA 11.3882 19.3808 49.7279
CA 30.319 16.1508 48.0273
CA 13.0608 2.55677 72.0754
CA 40.5584 4.15389 49.1344
CA 0.497819 -9.72202 42.5021
CA -4.7648 -6.00549 60.939
CA 7.38868 -1.54549 58.7237
CA 16.253 -8.01239 69.453
CA -1.57081 -4.44832 37.2742
CA 16.3966 18.5946 43.9229
CA 7.41205 -15.9425 68.7896
CA 19.6315 11.9547 39.5441
CA -8.90126 19.7869 81.0564
CA 37.4023 -7.85827 37.8635
CA 13.6161 5.29665 34.7183
CA 5.83713 -19.0038 60.6234
CA 8.86416 3.98919 89.9087
CA -4.7297 -10.5448 71.4899
CA 18.509 13.6049 30.3565
CA 3.37647 -20.413 81.9856
CA 8.92596 2.53559 63.0116
CA 14.5063 -5.2337 70.1742
CA 16.4891 -18.9949 56.581
CA 6.21235 -15.1369 73.3064
CA 29.865 21.8098 66.425
CA 12.5008 21.5942 64.7289
CA 36.7071 -4.6488 49.484
CA 11.0961 -10.3853 62.0929
CA 32.0179 21.9644 46.7626
CA 7.5412 -18.0421 51.4002
CA -8.594 -3.54727 44.7411
CA 2.61444 10.9432 49.9646
CA 6.16264 -13.8709 55.4751
CA 18.4894 15.284 64.4306
CA -1.73322 21.2744 52.2682
CA 10.7315 19.612 51.6206
CA 0.12274 3.45713 74.0674
CA 3.10797 21.0642 64.9247
CA -3.22011 10.9282 52.0702
CA 21.7098 -7.1526 48.4011
CA -4.01442 -11.7536 73.4863
CA 15.9775 8.35438 83.4007
CA 7.84552 -3.21536 60.739
CA 1.30039 -10.0259 40.4469
CA 8.97038 -6.90307 76.483
CA 29.3007 9.94128 69.4337
CA 3.42535 -10.9185 40.1446
CA 34.3711 17.5221 48.974
CA 42.7079 12.5431 50.1013
CA 13.3352 -0.440652 88.8848
CA 9.78434 -8.87615 43.4154
CA 11.764 -10.5866 66.9285
CA -8.39724 14.3218 49.4911
CA 32.2782 17.2623 45.8595
CA 28.7009 18.4916 50.3624
CA 4.04433 -3.1461 83.7498
CA 13.3684 14.9814 50.0707
CA 6.71897 -3.67966 69.3173
CA 4.09607 -5.27315 74.4958
CA 24.5769 14.3103 69.885
CA 0.655391 -11.3639 38.4913
CA -9.29674 -2.78494 64.3237
CA 27.0185 25.3978 32.0626
CA 23.2361 -1.26446 78.1333
CA 41.0034 12.5617 55.3981
CA 26.2022 20.3499 34.0059
CA 14.3584 -6.95358 66.5889
CA 39.5215 7.16532 56.6056
CA 16.4616 17.9475 40.9994
CA -2.43546 -3.86766 62.365
CA 0.36101 3.61274 78.3842
CA 8.36855 2.83005 66.2976
CA 13.6141 18.2253 70.0695
CA 30.9108 12.7585 69.5873
CA 17.4332 15.3481 16.3633
CA -13.8426 1.12145 45.2185
CA 17.2104 2.59538 43.3915
CA 4.91936 -26.0335 82.3667
CA -5.62822 18.245 82.8367
CA 0.24879 2.3109 56.1446
CA 19.609 -14.6972 42.6395
CA 16.8375 19.0208 20.1606
CA 28.1523 7.48829 51.9645
CA 1.31163 -16.2446 75.584
CA 24.0123 2.34346 47.5126
CA 7.979 13.04 75.3159
CA 38.0807 11.2534 76.5809
CA 21.9431 13.146 53.3951
CA -0.368777 14.2382 64.5334
CA -3.04931 11.9119 79.7773
CA 4.86526 -9.78582 53.416
CA 11.7551 8.88241 91.3847
CA 21.1301 5.02367 87.4677
CA 17.6688 21.2052 21.4014
CA 29.0927 19.6498 55.065
CA 27.062 16.5851 34.6386
CA 14.4724 -13.7122 36.6671
CA -0.364774 13.0468 60.9722
CA 4.51029 5.8694 87.3909
CA 8.52308 2.72783 73.7377
CA 12.3582 -0.471351 81.5237
CA 10.1065 17.0371 54.8868
CA 2.13528 -8.68063 79.9252
CA 27.109 19.1694 36.4806
CA 19.2328 14.9933 51.1491
CA -1.50132 -11.4954 77.9872
CA 14.3499 10.7784 84.4555
CA 9.57818 -1.49667 83.4892
CA 13.2682 20.0448 39.7372
CA 33.028 19.5632 48.0286
CA 24.9472 -6.93313 43.8855
CA 7.40211 5.04659 66.7805
CA 20.3731 -10.4025 47.6047
CA 4.36521 5.95767 70.1518
CA 26.8474 18 69.0516
CA 17.9795 -10.1444 67.6432
CA 30.4748 -5.63011 38.8315
CA 32.9838 -5.5823 48.7605
CA 7.10231 -12.5182 64.6466
CA 18.8594 24.4889 12.0331
CA 34.2355 19.2859 66.3832
CA 16.1228 18.6655 46.6256
CA 1.2919 10.0273 73.7987
CA 16.165 -6.85786 67.3851
CA 0.459067 -19.251 83.5562
CA 12.7835 -12.9213 35.4939
CA 28.693 4.60439 54.416
CA 18.3 25.1838 14.2414
CA 27.0784 16.0108 69.894
CA 26.8518 -1.52666 69.258
CA 3.34989 -22.7698 83.7512
CA 43.623 19.8401 50.0272
CA 0.0700402 -8.80198 38.6082
CA 29.1724 0.388819 45.6009
CA 13.7863 -9.474 66.6854
CA 21.4361 6.81285 60.7365
CA 34.4189 -8.0124 40.7044
CA 20.6483 -4.26454 53.8592
CA 25.5911 -1.68016 76.9077
CA -4.43381 -0.858819 47.3091
CA 6.18468 11.1036 75.4814
CA 18.1824 -5.00821 45.2824
CA 39.521 8.98842 78.4779
CA 20.1591 19.8866 58.4864
CA 0.520595 1.61111 64.1857
CA -3.19962 16.417 75.0239
CA 21.5285 15.7287 59.6656
CA 14.6159 20.3406 50.1358
CA 34.3694 8.34606 74.6739
CA 10.1081 11.1595 58.8759
CA 16.271 -10.0008 46.8874
CA 5.66332 -1.74958 56.9349
CA 9.0463 9.76404 63.5533
CA 16.7475 8.30643 70.6824
CA 40.2783 6.15401 77.1307
CA -0.732449 -7.90933 63.3399
CA 39.5699 13.7445 56.2968
CA -2.20388 -0.571309 44.1647
CA 12.2474 -13.3843 43.2412
CA 28.2555 -10.3373 41.5254
CA 25.9185 2.47472 72.6951
CA 6.38594 -18.8889 66.2167
CA 9.7111 10.8401 61.2175
CA 5.25279 22.1253 51.9955
CA 20.0618 3.4624 86.5312
CA 5.35754 19.5394 48.0986
CA 21.6622 18.8313 50.9476
CA 21.556 10.5683 62.48
CA 18.07 11.2436 47.3356
CA 9.02692 2.55229 80.1131
CA 26.8581 7.66521 71.9132
CA 18.1676 5.86202 33.0814
CA 15.1022 15.175 87.9475
CA 3.64417 8.06218 85.7568
CA 24.8724 13.6896 54.1901
CA -1.70211 -14.6388 74.3936
CA -14.7575 -2.57154 46.3315
CA 4.81324 -15.9704 70.4832
CA 19.0031 11.6788 34.1159
CA 16.321 -7.47849 50.9961
CA 18.7688 0.307557 51.6333
CA 26.8037 -0.652492 79.2489
CA 6.55769 -3.71955 83.6007
CA 3.62035 17.3781 55.8191
CA 5.68888 18.4132 63.5232
CA 17.3005 20.1897 60.1032
CA 6.72272 -18.7591 54.9589
CA 13.7366 18.4755 50.0063
CA 3.28766 8.91736 68.5568
CA 32.2319 10.8222 67.031
CA 21.6007 14.4718 65.2192
CA 7.93764 -14.5802 67.5659
CA 8.83237 -19.1733 59.9148
CA 17.0631 6.11719 34.6678
CA -4.19455 -1.015 52.7492
CA 23.8308 21.2026 32.6403
CA 25.9628 16.0639 29.5568
CA 8.42183 -2.9835 71.459
CA 11.1587 -9.70001 48.0605
CA -11.3052 -3.4542 45.1293
CA 13.7458 26.0964 14.7919
CA 8.94825 -9.95381 42.0346
CA -1.5557 -6.58411 42.9329
CA 12.2119 -16.0775 66.853
CA 16.2608 23.718 10.1359
CA 26.8977 -3.18866 45.0796
CA 8.2403 -2.14556 74.2619
CA 18.2212 -9.17431 56.9797
CA 22.8332 -1.42676 86.3011
CA 9.15399 6.83923 70.7172
CA 2.48378 6.28083 49.3458
CA 30.9087 8.14033 54.5138
CA 7.20461 11.232 73.7113
CA 24.0026 -11.4162 72.7769
CA 23.4109 17.2674 65.7496
CA 3.32985 -4.69619 41.2594
CA 15.8828 5.42665 66.7456
CA 15.9086 6.22851 87.029
CA 19.5542 -9.43134 44.1369
CA 22.5284 -9.27375 48.6317
CA 1.91632 -17.3154 83.915
CA 1.08152 -3.61677 41.7269
CA 22.0179 -15.3412 72.3812
CA 7.91526 -3.05597 82.3423
CA 21.4476 -2.40228 64.1056
CA 16.469 12.7264 45.9939
CA 13.5778 7.25551 36.726
CA 20.8171 23.3524 26.0863
CA 25.7927 14.8699 50.1287
CA 4.57206 -17.0046 39.7246
CA 20.2542 12.8988 60.766
CA 8.51664 -19.7402 54.4026
CA 8.91906 15.0411 10.5193
CA 9.26747 8.22401 58.0201
CA 12.7121 4.64225 81.3786
CA 10.9632 -15.5279 59.3033
CA 20.2289 23.4781 33.8776
CA 7.20619 -7.37593 76.2638
CA 16.2663 4.25596 36.3056
CA 7.32462 5.87309 85.6403
CA 42.2841 5.33205 52.8178
CA 16.2896 11.8785 40.4527
CA 13.8668 6.93291 79.4928
CA 11.8725 1.6288 81.7754
CA 11.9212 -22.3303 67.5394
CA 23.0363 4.69078 40.8713
CA 22.9339 2.68571 80.7275
CA 13.7082 27.7898 18.6797
CA 8.52117 18.3926 39.9732
CA 7.3609 6.61529 79.2926
CA 21.7448 -13.8223 47.6106
CA 10.0752 -15.9538 78.3504
CA 12.2228 -11.5365 48.7196
CA 9.20782 16.8071 44.7543
CA 27.3075 -2.43977 42.428
CA 14.0608 11.8098 75.5212
CA 18.1641 -12.5998 45.4403
CA 23.5945 20.4031 76.8157
CA 2.08788 13.967 62.9869
CA 40.5626 2.26376 45.1379
CA 26.9996 -1.25849 75.699
CA 17.9373 13.9179 33.0536
CA 15.5945 -7.16283 56.2483
CA 4.03385 -11.5685 42.4067
CA 22.6106 13.2101 72.6451
CA 6.87658 19.87 50.3895
CA 14.7203 -8.58508 68.2082
CA 37.9459 3.84088 52.6204
CA -3.18677 20.2387 57.3004
CA 3.84983 -6.98119 70.5071
CA 43.7007 18.8398 53.2202
CA -8.40806 22.2462 69.676
CA 18.8399 7.20007 64.8139
CA 9.05809 23.7364 62.6294
CA 13.2762 -5.06181 84.0649
CA 25.531 21.8047 32.049
CA 6.04173 12.9045 63.0588
CA 6.72265 -5.62191 81.9482
CA 6.80986 5.66932 47.1324
CA 11.8016 21.4908 60.4923
CA 6.67184 15.1149 66.3714
CA 9.33344 19.3384 69.0396
CA 17.9443 -13.429 67.9196
CA 11.2262 3.21391 64.1299
