489

CA 11.6882 26.4797 53.6652
CA 17.9936 -2.68362 46.3558
CA 7.15465 23.8035 53.3251
CA 16.4571 5.67617 40.7368
CA 41.2116 2.1468 57.6378
CA 41.3792 17.0851 76.3604
CA 2.84335 2.22587 62.5444
CA 5.67527 -14.0286 31.3745
CA 8.27125 -21.1237 63.9657
CA 23.3154 0.0483989 62.5655
CA 20.6659 17.4099 60.3033
CA -7.30281 0.173578 54.4565
CA 8.35072 -11.9566 36.2449
CA 1.29694 14.767 71.7712
CA 29.2527 -0.113658 50.5496
CA 29.4573 7.24281 75.0186
CA 34.7418 12.0769 78.9485
CA 8.43083 8.09374 81.8933
CA 19.804 -7.84229 67.5783
CA 35.5964 10.5008 77.8114
CA 17.3712 10.0354 59.6247
CA -7.0616 0.628524 50.7935
CA 6.47596 -12.2928 52.3768
CA 33.0936 17.0766 43.9937
CA -3.50653 -3.72552 66.9317
CA 14.9681 -3.93498 57.2328
CA 24.4426 21.8593 70.2212
CA 9.65346 -13.0609 55.4465
CA 39.3142 11.3399 82.5772
CA 9.72761 4.01311 84.5375
CA 10.4217 -10.3031 60.919
CA 21.9203 1.6052 44.6768
CA 12.7137 19.0322 62.1966
CA 18.4291 17.3985 15.523
CA 13.6723 -0.618539 79.2748
CA 22.5001 14.7058 40.6086
CA 19.4029 23.0569 19.8145
CA 16.7809 13.5615 46.1732
CA 36.4392 9.90305 42.0497
CA 20.3753 -6.1893 77.5947
CA 26.3824 24.8542 67.1178
CA 6.00083 9.48344 63.9665
CA 38.2367 8.40613 55.6768
CA 6.04891 -21.2717 66.4639
CA 5.55129 0.485224 55.5164
CA 13.7651 24.4738 58.3076
CA 38.3006 14.056 77.7784
CA 17.8715 -14.9629 70.8433
CA 18.6147 29.5036 64.4593
CA -4.15717 -1.7448 52.3564
CA 21.4067 -7.40982 76.4174
CA 29.0638 -8.47708 58.1242
CA 6.7131 -10.607 64.1568
CA 27.4243 28.1301 26.9098
CA 9.66845 -2.66487 55.0405
CA 12.7854 12.3171 47.786
CA 15.7293 16.7055 60.3761
CA 31.7862 15.0673 47.3814
CA 18.4055 17.1783 28.9741
CA -8.86661 -7.4738 53.0896
CA 15.8554 16.322 53.8988
CA 27.6488 20.1724 54.894
CA 20.5784 23.6313 48.8799
CA 7.51587 -15.167 84.3427
CA 5.09427 -4.07469 38.1816
CA 20.4006 6.73286 79.9327
CA 21.0224 22.354 60.658
CA 34.3881 14.4303 43.819
CA 14.9892 -21.3293 66.728
CA 1.50315 17.4516 50.5758
CA 16.3358 -0.787579 82.4976
CA 20.3282 -3.03293 83.8353
CA 4.75824 14.2695 86.4253
CA 11.9943 19.6343 40.5773
CA 21.7022 20.5385 55.9165
CA 17.8375 2.107 57.6547
CA 9.37858 3.56205 68.9235
CA 5.91221 -5.63313 37.5727
CA -6.20919 20.2731 66.1604
CA 3.64874 -12.9781 34.5489
CA 26.2461 22.0486 31.801
CA 30.4968 13.8142 42.7538
CA 28.1453 1.03804 41.4892
CA 18.5129 20.906 14.3082
CA 5.60402 -9.93605 55.4336
CA 22.1741 -1.75415 64.7338
CA 4.33852 17.3814 51.0011
CA -0.222508 22.8176 62.7485
CA 0.576007 -10.1105 35.8025
CA 19.113 4.02662 39.5536
CA 9.48581 23.1057 64.4324
CA -2.76679 22.8113 53.0779
CA 23.3593 15.5435 47.9412
CA 6.00785 4.69557 59.2048
CA 38.7043 -2.59797 55.7579
CA 13.393 -12.4975 64.4528
CA -8.82576 2.41816 43.3763
CA 8.53283 -8.45265 37.3433
CA 14.8335 1.63698 68.2138
CA 17.9874 15.7248 41.874
CA 27.1487 6.93458 70.3236
CA 14.225 19.9351 49.5589
CA 10.1394 -13.018 50.8464
CA 18.552 -10.3902 47.8052
CA -12.1578 -8.10764 54.5818
CA 3.19046 10.3711 88.5648
CA 8.57181 -4.60282 36.2108
CA 17.7004 -0.604373 62.1953
CA 28.0291 -8.12393 49.3881
CA 22.3335 15.0908 58.2856
CA 23.1462 26.9099 39.3481
CA 28.8974 9.21713 52.6211
CA -5.32426 21.5449 61.7085
CA 23.4709 8.30127 53.0867
CA 14.9195 -1.93975 56.678
CA 22.3285 -2.0571 29.1515
CA 28.0753 8.43259 47.9977
CA 13.4607 -3.2063 63.5097
CA 15.1845 -5.22927 73.5134
CA 29.9972 13.4776 60.8307
CA 17.8131 27.0488 59.7264
CA -0.421166 20.9657 61.9962
CA 11.236 22.7867 50.4212
CA 19.1266 -1.83463 28.8972
CA 16.7049 22.5292 12.2318
CA 19.5713 21.3097 61.8394
CA 15.8668 6.52398 51.3766
CA 19.984 -17.1342 70.0691
CA 15.7028 21.2263 53.2153
CA 17.1363 -13.2777 63.3351
CA 22.0865 15.8683 56.0635
CA 40.8253 11.0963 81.3217
CA 38.7822 9.09588 44.9673
CA 25.8016 24.7471 64.0095
CA 0.0361009 -1.74603 56.0892
CA 25.0357 15.7387 64.1753
CA 10.255 6.58408 86.0917
CA 16.4058 3.33973 44.8796
CA -9.47977 -5.8963 57.6089
CA 22.204 19.0514 61.5499
CA 7.18486 10.9319 82.1126
CA 28.1538 23.0356 50.8519
CA 5.05661 9.81114 60.1989
CA -0.558048 -16.4627 77.4066
CA -10.5075 1.78735 42.8178
CA 7.62028 -11.827 80.5411
CA 23.7743 24.1345 33.9761
CA 7.5656 -5.62811 34.1078
CA 6.21828 -8.46002 40.9097
CA 27.9701 1.38762 72.5186
CA 15.3989 19.2065 8.86295
CA -6.43952 6.16389 70.453
CA 35.9158 20.2565 39.3008
CA 32.3821 15.2459 43.5579
CA -10.0906 8.71786 68.9054
CA 17.4315 6.32853 92.9654
CA -8.1708 -7.76569 56.8618
CA 12.5483 6.17815 91.5948
CA 22.4041 20.1531 74.3673
CA 18.4029 -10.9344 66.253
CA 18.5917 24.7143 17.7479
CA 2.25152 10.7112 71.7803
CA 20.7472 20.9968 52.1581
CA -4.34966 -1.96352 63.4423
CA -11.9626 -6.35162 55.3527
CA 24.9337 23.3696 50.864
CA -7.37382 -2.97364 50.5116
CA -1.73714 0.0509095 61.9987
CA 17.9794 18.8962 49.6468
CA 28.7454 24.1576 38.6833
CA 11.4571 18.9092 38.667
CA 3.05889 -15.1048 76.164
CA 2.40667 -13.9658 81.0144
CA 19.2778 20.3857 21.1503
CA 18.8018 -1.85189 72.7686
CA 35.2938 13.3455 81.8646
CA -4.68195 -3.32437 49.6243
CA 19.8109 -11.4583 58.773
CA 25.4734 16.5941 61.4227
CA 1.61717 4.40768 81.1284
CA 7.85226 -7.32553 60.7386
CA -0.355375 -14.7336 83.9945
CA 10.2375 11.428 79.3321
CA 14.0982 21.9157 67.0912
CA 21.577 9.52808 53.715
CA 5.72286 -11.7506 54.24
CA 19.5286 33.3264 62.5213
CA 13.1873 -2.19763 67.095
CA 17.0004 1.09015 37.6229
CA 18.2881 2.67796 50.5771
CA 1.3964 17.2799 90.0924
CA 32.1434 13.2309 53.3709
CA 28.9526 6.86281 45.951
CA 28.5875 3.15551 72.3197
CA 0.516278 17.4641 52.4377
CA 8.83503 -11.5306 69.3965
CA 26.8718 9.61422 77.5647
CA 13.0752 12.1756 85.2333
CA -9.72839 -1.35778 59.4412
CA -0.00229255 -18.5396 88.4764
CA 13.3006 8.25264 56.1059
CA 15.0195 23.6928 65.6425
CA 11.4008 5.79227 68.0999
CA 13.0876 -12.8742 75.8769
CA 35.0278 17.7886 38.4333
CA -2.16997 17.3467 60.7316
CA 33.5324 9.84085 52.518
CA 23.7479 27.2113 32.784
CA 22.2669 18.5739 57.4357
CA -3.19783 7.2265 58.0259
CA 11.5431 23.5864 43.45
CA 18.2284 -18.747 70.7148
CA 19.0656 14.1321 56.1617
CA 15.6972 3.79923 82.0774
CA 16.0534 -0.0926569 33.0107
CA -2.9511 -13.7263 79.0981
CA 8.29117 -23.9618 70.1002
CA 25.4828 -1.33794 59.856
CA 28.5552 -3.21624 78.1267
CA 43.166 5.43593 53.9347
CA 30.2352 25.6117 50.4508
CA 5.46804 14.3326 52.9419
CA 3.45399 11.2691 76.0609
CA 40.5212 12.0732 43.614
CA 20.6896 15.1929 61.0838
CA 8.61841 -4.19833 83.9373
CA 9.03086 8.30479 65.4693
CA -9.92276 -3.44901 58.3032
CA 9.63157 24.7975 56.2799
CA 13.2995 -11.319 47.289
CA 37.3766 10.0158 44.1503
CA 16.9481 0.305542 57.3163
CA 30.5684 8.90411 44.6914
CA 8.89357 -19.991 65.5985
CA -3.35819 22.5984 64.7497
CA 18.067 6.07359 44.7358
CA 0.256609 10.0934 59.2398
CA 24.0236 18.774 24.7003
CA 1.68946 -23.4039 57.864
CA 14.2273 -18.9652 66.3502
CA 17.0831 -10.1402 75.6424
CA 11.6053 -0.942432 62.4591
CA 3.47343 -0.887573 56.4265
CA 1.58802 -19.2361 84.8311
CA 10.3696 -2.80974 49.9537
CA 43.3379 7.20803 53.1936
CA 37.6532 13.9576 54.8085
CA 12.8314 18.3285 43.9986
CA 4.40909 11.0426 62.8742
CA 5.73681 -17.7225 78.7229
CA 28.7878 13.3973 58.8645
CA -2.35797 -9.10029 37.5676
CA 14.6055 -7.97762 49.5756
CA 10.5836 -1.48648 56.5856
CA 31.7678 20.4113 40.1175
CA 23.7731 20.0579 76.3625
CA 18.7413 -10.3914 45.9569
CA -3.11487 20.2699 64.2208
CA 11.0391 -15.5629 74.684
CA 11.5285 19.3724 33.5821
CA 10.8773 -11.1505 68.6423
CA 16.0202 -12.0127 42.2708
CA 28.2719 22.0269 42.3872
CA 9.60184 18.8476 44.8097
CA 9.49474 -17.6137 50.4892
CA 24.6433 22.8792 38.081
CA 9.40912 -7.90601 66.1037
CA 19.9886 -10.5636 71.4985
CA 11.299 0.830539 51.6866
CA 12.6577 20.5726 7.58246
CA 26.3273 7.20573 51.3017
CA 31.6342 2.27259 65.799
CA 10.255 10.8706 81.2455
CA 26.8202 -8.17059 75.5475
CA 5.14705 -22.3705 61.6104
CA 13.5772 0.472246 60.8104
CA 14.2567 2.00341 80.1627
CA 25.3247 18.7525 61.6334
CA -7.48063 -7.25114 54.6169
CA 6.28015 -4.43266 45.0124
CA 16.6345 -6.73023 48.7475
CA 14.2697 4.48229 87.4859
CA 19.4579 20.5 25.3322
CA 20.4632 -7.36887 74.5881
CA 21.3713 4.58826 40.0852
CA 7.29213 -12.9546 77.3247
CA 26.3055 -4.75012 56.6585
CA 0.93268 -11.2758 37.4279
CA 26.5815 10.6484 51.598
CA 2.2108 26.8265 50.2979
CA -1.8948 -5.17041 65.1425
CA 1.22699 -14.0127 35.9901
CA 8.31118 6.11181 82.1289
CA 17.0547 -5.33682 58.9266
CA -2.32428 1.78886 53.0344
CA 19.8581 12.9134 70.1434
CA 20.7746 23.467 40.0376
CA 5.95753 -1.45755 36.5696
CA 32.9735 20.0758 42.8611
CA 28.2413 25.6523 35.7889
CA -6.19733 29.0894 53.0425
CA 12.5029 -13.042 59.4187
CA 12.3585 23.1882 12.9077
CA 20.5059 0.0657207 41.9579
CA 16.6985 -1.991 75.4581
CA -2.35878 4.87409 68.6962
CA 32.6388 12.7241 45.5365
CA 31.4036 10.365 68.3698
CA 22.5003 10.2347 41.3348
CA 19.9362 15.1942 45.0501
CA 8.56429 17.1205 57.2557
CA 17.8921 -10.6946 58.2046
CA 22.863 -5.17456 64.36
CA 28.7996 22.6354 66.2239
CA 14.2338 -6.09585 52.3194
CA 30.0175 -5.60821 80.8475
CA 29.7043 14.3197 67.4659
CA 44.427 15.624 75.1698
CA 19.1802 5.7 61.5181
CA 32.0688 7.8115 67.4572
CA 20.3624 29.1262 65.337
CA 24.0732 -2.70404 28.2725
CA -6.10383 1.98312 60.8698
CA 37.42 16.1459 55.6274
CA 18.8594 24.4889 12.0331
CA 29.8126 5.93753 71.4291
CA 28.8688 23.9476 63.6836
CA 6.01355 -3.54485 40.1449
CA -12.0459 3.08276 47.368
CA 14.4389 -10.3339 37.8306
CA 14.4574 -15.0723 43.271
CA 15.6687 2.22141 57.1084
CA 9.97123 -2.48913 86.7878
CA 14.6766 4.55678 91.7492
CA 19.5291 0.124038 43.5849
CA 26.2729 21.1295 55.9049
CA 17.5792 -24.2359 65.4663
CA -9.07599 23.5235 58.1529
CA -6.36261 19.0156 54.0818
CA 2.21927 -1.60456 64.5283
CA -9.0527 1.58296 56.894
CA -0.97232 2.04684 55.9279
CA -0.600197 8.97549 64.0109
CA 12.0725 -0.798368 75.7521
CA 28.4046 -4.10382 50.1154
CA 3.32231 17.9867 52.7228
CA 23.5599 5.24622 73.7963
CA 27.9276 6.35922 48.5966
CA -0.0724086 0.834904 60.922
CA -5.14849 15.9351 56.9424
CA 29.2769 5.39845 47.356
CA 25.9626 26.027 38.5701
CA 14.3084 -7.83115 75.3055
CA -12.6885 2.07063 52.9822
CA 30.1731 5.69245 61.4737
CA 27.9461 8.31413 49.9345
CA 11.0981 0.04566 65.3064
CA -4.98668 -2.1347 66.2622
CA 30.5515 5.85095 49.6374
CA 21.5257 2.77295 82.325
CA 30.7958 28.9862 67.3899
CA 29.7225 5.95409 73.5749
CA 6.89598 15.7286 54.9126
CA 16.1744 16.4904 50.7284
CA 21.4718 25.2805 36.6878
CA 4.97828 -7.6982 67.6367
CA 41.0765 6.5667 57.4503
CA 11.389 12.9014 66.8964
CA 20.8057 -0.688021 74.3028
CA 26.8457 11.2108 69.1553
CA 27.1337 29.1696 30.5873
CA -3.30518 -8.09224 36.0539
CA 26.6717 17.3696 59.876
CA -1.4624 14.0416 74.2097
CA 21.7972 28.8313 63.6475
CA 5.03938 12.8592 72.3884
CA 29.2159 3.61891 46.4595
CA 25.9523 0.108851 52.9855
CA 4.1586 -15.807 79.1307
CA 27.4603 -5.40661 69.8766
CA 25.7924 -6.41876 64.0858
CA 3.38952 4.92915 79.4594
CA 22.8227 -7.94625 70.8311
CA 13.838 1.41219 70.5706
CA 20.2544 -16.8764 71.9484
CA 19.7419 3.4829 82.0323
CA 28.623 -2.10265 68.153
CA 20.117 28.2251 60.8093
CA 24.1403 26.6436 37.0655
CA 16.3599 20.0864 12.3133
CA 12.4618 -0.503554 36.8775
CA -6.57399 25.8021 55.1096
CA 9.35804 -3.27318 52.8444
CA 16.1973 17.008 28.3511
CA 31.6815 7.25757 51.4523
CA 12.8149 -5.63827 71.5988
CA 21.2914 11.4473 69.5917
CA 39.9012 10.5362 54.6868
CA 30.3309 25.2431 63.4085
CA -9.63196 -1.12894 51.0886
CA 30.9874 -3.60134 76.2378
CA -10.4914 -2.1587 48.7737
CA -3.15386 23.989 49.9055
CA 29.9451 5.69534 58.6397
CA 17.8219 19.9673 55.9909
CA 8.38418 12.7864 63.1441
CA 13.8503 20.2137 9.88361
CA 11.1075 -9.01453 52.0048
CA 30.3655 13.8329 51.2231
CA 4.20699 2.1471 58.4103
CA 5.73509 -14.8412 55.7485
CA 22.3554 8.53799 56.1112
CA 6.36549 12.2465 86.6359
CA 15.3091 -15.648 72.472
CA 0.339715 16.7657 71.034
CA -2.32593 -20.6411 89.3553
CA 15.4368 -6.5824 56.3857
CA -8.75411 25.7371 58.8025
CA 20.9584 31.1379 61.6339
CA 13.2284 -0.475502 69.3724
CA 13.7715 6.3951 57.936
CA 8.59494 -2.25711 68.8702
CA 15.9086 6.22851 87.029
CA 25.8033 21.714 64.1517
CA 8.99446 -5.78901 66.9287
CA 4.48718 -1.91555 61.9874
CA 1.95862 12.6851 69.216
CA 20.2334 23.7527 65.5936
CA 13.5742 3.55375 68.8827
CA 11.8364 -5.04668 61.9187
CA 5.15227 -2.73036 58.6698
CA 15.3953 -10.9645 73.6343
CA 22.0321 11.0397 47.7787
CA 18.2814 19.8721 52.0563
CA 33.4902 9.49043 76.7226
CA -2.31616 10.625 56.3784
CA 17.8597 26.3289 15.4493
CA 7.83142 -3.1118 78.4323
CA 1.39675 13.6727 88.9822
CA -1.15327 7.21445 67.4871
CA 14.9763 3.20887 34.7989
CA 3.1415 13.3318 64.1039
CA 15.3761 2.89995 39.4422
CA 27.437 2.15667 50.5758
CA 16.6991 -6.20268 45.7769
CA 28.5944 1.51208 77.6351
CA -0.428837 26.3966 47.9353
CA 19.999 3.63812 85.7869
CA 10.598 13.3604 85.2968
CA 8.56162 13.4578 67.6277
CA 4.06802 14.7482 89.7329
CA 19.6969 13.3225 53.4718
CA 9.11023 18.3826 58.7847
CA 12.6267 18.9367 31.4564
CA 15.7851 20.3292 18.2489
CA 34.5169 9.12124 57.028
CA 25.46 -8.38623 61.3801
CA 13.1603 16.2689 38.2768
CA 25.2427 2.92101 40.2188
CA 19.6414 16.7819 58.5589
CA 4.28884 4.02647 60.3847
CA 16.1385 21.5232 40.8674
CA 4.63899 7.85577 84.4806
CA 6.15301 16.0176 58.5297
CA 19.2614 11.6864 55.1215
CA -1.0934 -11.2692 35.7267
CA 16.316 10.924 44.9358
CA 15.7751 4.72934 89.6559
CA 9.93818 -4.11113 57.7896
CA 38.9972 11.9811 79.9662
CA 20.1411 1.55784 35.5915
CA 37.7685 12.6089 81.2399
CA -9.92075 3.45176 47.6626
CA 14.1233 -2.79765 40.5066
CA -14.5619 4.36464 43.3648
CA 23.5212 -7.46705 78.4249
CA 14.0898 -4.39526 78.7644
CA 22.1065 -1.75467 60.5116
CA 14.9641 -15.0324 61.7788
CA 11.6814 -6.63878 54.6022
CA -1.7683 20.2117 52.0597
CA 17.7355 27.9789 66.2944
CA -1.08415 -14.4483 80.9537
CA -2.35458 -16.1083 82.202
CA 29.9934 4.21847 44.9286
CA 8.75963 17.1625 55.293
CA 26.9659 -0.936959 57.519
CA 0.0151809 -1.51266 66.2299
CA 26.2879 4.46362 48.6442
