489

CA -5.19453 -0.847379 59.7853
CA -0.566547 17.6668 66.6298
CA 24.2205 11.4234 57.4347
CA 22.352 26.2546 56.8984
CA -6.65453 -6.94266 57.8292
CA -1.84263 21.5585 52.1093
CA -3.855 24.0542 52.9668
CA 9.43772 -0.524282 63.6011
CA 8.27125 -21.1237 63.9657
CA 21.1999 3.26374 55.5388
CA 3.9629 15.4322 76.1613
CA 19.2883 -1.362 45.597
CA 30.1778 4.77573 44.9838
CA 19.2169 9.13525 73.5528
CA 12.8477 7.65409 82.3363
CA 20.5361 17.4934 50.9871
CA 18.5791 -9.75819 66.2211
CA 28.1027 -0.779356 51.1869
CA 24.605 -6.35339 71.8184
CA 35.5964 10.5008 77.8114
CA 22.5495 1.50534 49.7084
CA 8.306 -12.4741 60.5144
CA 6.47596 -12.2928 52.3768
CA 22.2951 22.7779 57.1201
CA 37.7327 -2.20283 52.0362
CA -8.08462 4.35392 68.9778
CA 32.8469 4.52988 79.6359
CA -2.93123 -1.58497 39.8056
CA 24.663 -8.43418 65.8519
CA 13.7372 -11.1557 41.7171
CA 32.3088 6.75348 64.6802
CA -0.476935 1.96685 58.4553
CA 29.2039 1.9218 49.7806
CA 17.885 26.043 61.5054
CA -2.02659 -21.1028 82.3956
CA 18.2066 -4.72046 51.2822
CA 19.4029 23.0569 19.8145
CA 19.8301 2.72156 48.6529
CA 9.34784 16.5183 34.4986
CA 11.45 9.69166 84.7489
CA 21.6188 -1.91636 49.809
CA 21.0163 28.1036 58.0847
CA 38.2367 8.40613 55.6768
CA 3.00406 -10.3128 38.0163
CA 23.0801 17.1434 61.982
CA 21.7324 7.82845 48.4661
CA 38.3006 14.056 77.7784
CA 18.8593 9.97267 75.8151
CA 7.40818 6.73607 65.4903
CA 5.89795 1.51612 74.0484
CA 1.40221 8.19591 63.729
CA 30.5603 1.58346 63.9336
CA 21.7555 -5.77712 73.9526
CA 2.85877 13.5407 73.9821
CA 21.2758 0.12733 68.3985
CA 5.91431 12.7616 41.4083
CA 8.91099 2.3644 72.1065
CA 31.7862 15.0673 47.3814
CA 24.303 13.2317 60.3691
CA 21.977 23.6533 41.6533
CA 14.1822 -16.9739 65.4366
CA 16.9737 -4.40731 57.0462
CA 36.2381 2.32635 63.7758
CA 0.909373 -19.1301 80.8677
CA -3.81574 11.1748 72.0832
CA 13.2649 20.4592 64.3305
CA 23.5736 28.2761 65.6322
CA 5.4261 10.3816 67.9375
CA 38.3382 14.6827 54.9916
CA 19.2488 1.58147 84.4382
CA 14.34 22.2394 7.99651
CA 18.1714 17.1513 66.3679
CA 22.1898 17.1941 71.5606
CA 16.1594 0.489451 35.9174
CA 18.7047 22.0655 66.9423
CA 7.08813 16.8415 34.2538
CA -3.10057 10.3523 53.9552
CA 38.5302 14.4421 39.7186
CA 14.5097 -21.1626 68.3174
CA 18.2157 6.90096 75.3873
CA 22.7981 -13.2579 65.7343
CA 0.953882 20.4549 54.9208
CA 25.4747 -2.48702 72.8897
CA 38.215 17.131 75.6037
CA 23.3423 10.9729 47.9329
CA 37.8752 0.133468 46.1396
CA 23.2876 1.02407 61.8488
CA 10.0888 -2.91539 71.1806
CA 25.6156 -5.58841 61.9226
CA 27.422 14.3452 49.8899
CA 9.48581 23.1057 64.4324
CA 9.15759 16.9672 41.1471
CA 13.7687 18.8923 16.2898
CA 32.3153 16.7913 50.0241
CA 28.9759 29.2037 62.4819
CA 25.0741 -12.7626 67.8691
CA 14.3717 3.62102 83.2645
CA 26.1522 -6.68314 56.412
CA 8.56535 11.0805 71.0673
CA 19.7516 -14.1003 52.1133
CA 32.7769 -3.9055 55.4643
CA 28.7088 3.71342 51.0437
CA 22.146 10.9729 60.0748
CA 43.4015 10.6044 58.5203
CA 21.2313 21.9304 73.338
CA 39.2999 -2.45215 53.6719
CA 8.93059 -11.5432 62.0164
CA 32.4708 -3.9225 77.6124
CA 19.4868 18.5448 61.4657
CA 10.3006 16.8366 61.2006
CA 13.7092 5.90255 67.8312
CA 28.8974 9.21713 52.6211
CA 16.5285 -6.4133 69.3723
CA 13.4855 5.29122 56.813
CA 35.2076 18.4237 47.1819
CA 10.241 19.9709 42.4603
CA 4.75087 -7.64486 47.9414
CA 18.8372 1.98683 90.3919
CA -10.8252 -3.06458 49.6558
CA 0.847823 -20.3381 62.5449
CA 40.5303 13.8482 73.3819
CA 10.3154 6.55915 67.6409
CA 24.2017 26.2206 14.1574
CA 14.2595 -14.6624 74.3599
CA 12.1886 -7.39346 72.8613
CA 16.4574 6.13798 80.4352
CA 21.9979 29.6324 65.9202
CA -0.5947 13.7246 71.9573
CA 15.0005 5.17794 48.0837
CA 20.1055 1.34664 74.1676
CA 16.0212 -19.3478 47.4883
CA -1.65472 20.0581 67.2217
CA 21.9583 -4.97727 71.8589
CA 22.2605 25.3149 33.7414
CA 27.2206 -10.0671 70.7966
CA 12.5338 20.0807 43.3892
CA 23.0499 5.01547 54.0952
CA 38.8355 14.0503 50.1615
CA 8.18312 -3.52569 68.5285
CA 23.656 -10.7743 51.2019
CA 24.8761 12.0051 49.3177
CA -2.90026 16.864 53.2595
CA 29.5665 -3.43256 50.3891
CA 23.1669 2.95095 79.954
CA 9.94483 -4.22282 64.4547
CA 21.6748 1.79236 57.0449
CA -9.53209 -2.9169 44.178
CA 0.0876159 17.4453 61.9132
CA 9.43419 -10.2549 60.8242
CA 36.55 7.16891 78.3653
CA 15.3989 19.2065 8.86295
CA 18.2124 25.9795 72.4499
CA 11.9562 21.9145 14.3383
CA 34.9749 15.9572 45.8118
CA 25.775 18.3699 49.1027
CA 26.7792 15.7337 69.4356
CA 34.9216 -1.87604 51.8861
CA -0.691492 9.732 58.719
CA 22.4041 20.1531 74.3673
CA 19.8246 7.20642 57.694
CA 32.397 -2.44256 75.7912
CA 19.4778 0.418701 32.6286
CA 18.3492 28.8666 47.8496
CA 25.6994 5.40136 87.0025
CA -11.9626 -6.35162 55.3527
CA 26.3973 6.51987 77.2733
CA 41.1614 17.1432 57.566
CA -9.13701 -1.04422 47.4476
CA 14.4675 1.53094 30.2816
CA 17.7868 1.22274 81.4417
CA 27.0566 16.8575 59.1563
CA 37.5509 -7.69898 52.9125
CA -0.0499339 16.7977 93.7845
CA 21.5912 8.46812 79.3889
CA 16.8249 8.17211 42.9037
CA 29.9263 -4.00819 75.921
CA 15.3614 23.0653 11.5856
CA -8.00945 1.26343 48.4462
CA 25.4734 16.5941 61.4227
CA 29.2051 7.25388 75.1342
CA 7.76674 5.42584 64.1148
CA 28.0149 2.59096 43.2165
CA 34.7909 -4.28806 64.2686
CA 40.4183 11.4511 73.354
CA 25.2233 -0.759413 50.1876
CA 18.2438 25.7812 43.8235
CA 2.21233 18.5211 65.2491
CA 45.1677 4.79266 62.3697
CA 32.5273 15.444 43.2707
CA 26.0406 29.5156 61.2993
CA -2.5289 11.3731 59.608
CA 19.6665 -1.67405 71.9833
CA 17.564 24.8128 39.3634
CA 19.8389 4.68305 54.0013
CA -0.734954 26.3787 66.6664
CA 17.1638 9.14827 76.7346
CA 36.3678 22.7291 46.3908
CA 11.3416 -3.97898 76.362
CA 20.0277 5.85592 41.114
CA -4.57774 1.54499 62.7928
CA 14.6182 26.7334 14.8385
CA 17.5774 0.583218 91.8574
CA 15.829 -11.2112 50.7029
CA 13.0876 -12.8742 75.8769
CA 12.8377 17.2988 41.7248
CA 0.542322 -0.38795 61.447
CA 9.47166 10.8261 86.3911
CA 23.7479 27.2113 32.784
CA 20.6189 5.06142 85.4185
CA 11.0177 -3.59625 79.4704
CA 10.5196 11.5838 84.7761
CA 27.4278 19.6037 37.5124
CA 10.7613 -12.6065 38.1697
CA 10.4655 -8.23051 42.2901
CA -8.62932 -2.80553 48.8414
CA 28.7264 13.8785 70.864
CA 19.5174 2.62513 38.8522
CA 12.4042 -6.66975 74.9875
CA 28.5552 -3.21624 78.1267
CA -7.13139 -0.791728 39.3525
CA 5.83438 20.4292 38.8547
CA 5.46804 14.3326 52.9419
CA 10.7336 19.1623 64.5954
CA 21.006 -0.717796 38.9873
CA 15.453 -11.1211 40.5437
CA 33.6063 12.1639 56.4624
CA 22.5141 17.2568 73.4885
CA 2.00257 17.1341 55.1699
CA 18.8023 31.9715 65.2659
CA 20.4209 -7.68022 74.6517
CA 7.98022 15.1971 82.8515
CA 26.3893 0.0599167 55.9245
CA 28.3267 7.59786 67.6621
CA 5.81332 16.2919 50.3634
CA 33.1153 3.30217 49.4796
CA 18.5008 18.871 51.9085
CA 24.574 -1.97905 61.4429
CA 5.1805 18.9628 50.4014
CA 6.25993 26.1132 65.4058
CA 9.22217 18.361 39.1262
CA 18.7587 5.04744 87.2032
CA 17.8046 -4.83222 67.446
CA 25.1778 10.9084 50.7608
CA 2.57891 -14.3253 78.4279
CA -4.72912 2.38696 66.8882
CA 16.1796 2.05399 83.3193
CA -0.778806 12.7027 56.4584
CA 12.8314 18.3285 43.9986
CA 40.7909 15.9009 54.6335
CA 42.3571 13.0198 56.0054
CA 22.8023 -5.35039 66.5837
CA 12.5689 19.0163 12.1994
CA 35.3716 21.2897 43.9234
CA 8.35933 -0.668854 72.5499
CA 22.751 -2.4306 63.7534
CA -3.32274 -2.79392 59.6657
CA 18.7413 -10.3914 45.9569
CA 23.2767 17.1131 37.6083
CA 11.0391 -15.5629 74.684
CA 25.7637 -8.39593 49.3574
CA 16.042 -16.6263 47.8786
CA 4.79209 28.416 68.4902
CA 32.7653 -1.0728 48.5934
CA -3.12249 0.215025 57.3476
CA 8.51057 4.91194 72.7842
CA 11.6366 -10.4333 32.2955
CA 22.5091 -10.9249 73.4149
CA 19.0367 3.90967 40.8188
CA 16.3806 24.4214 48.8595
CA 11.5821 2.21577 60.9322
CA 11.9092 -1.64022 72.9686
CA 4.03708 16.0352 49.0643
CA 11.7423 -11.9895 35.9802
CA 12.2323 16.5726 46.711
CA 5.14705 -22.3705 61.6104
CA 39.8487 10.1154 63.9577
CA 13.8272 -11.0135 44.408
CA 26.332 13.6829 70.8513
CA 15.9982 -19.3748 50.6042
CA -4.85219 1.54589 56.5326
CA 20.3914 27.6888 30.6651
CA 19.0003 16.1415 52.8015
CA 19.4579 20.5 25.3322
CA 25.2369 -6.28734 74.7723
CA 8.18259 -7.88386 59.8189
CA 7.29213 -12.9546 77.3247
CA 12.0155 -23.785 64.9055
CA 5.85791 14.954 35.5967
CA 22.1312 7.33538 76.8026
CA -7.68553 -0.230394 51.0808
CA 31.0447 15.2218 59.0899
CA 26.6131 -2.12225 54.2307
CA 19.9213 -2.77335 65.4155
CA 13.6477 -20.6071 64.4256
CA 17.0026 3.30703 41.8822
CA 21.1571 3.94186 87.5956
CA 25.5915 4.96087 46.919
CA 24.1278 21.7214 53.2866
CA 34.5738 -1.36224 58.2507
CA 13.6891 -21.5704 48.8243
CA -6.19733 29.0894 53.0425
CA 34.5554 -2.20177 63.2344
CA -1.72328 21.5568 65.3555
CA 36.6405 2.94291 50.6843
CA 4.04765 12.8291 67.4569
CA 6.95524 12.2714 88.447
CA 14.3501 -1.03842 60.8787
CA 13.4635 22.051 60.7621
CA 22.5003 10.2347 41.3348
CA -0.950463 -4.06725 42.646
CA 12.3477 -11.8623 70.9153
CA 37.909 15.8521 76.9753
CA 22.6948 7.60391 59.4689
CA 28.7738 -4.71968 47.0726
CA 41.6574 10.6248 64.0952
CA 38.0113 15.0827 48.0663
CA 1.42476 23.2039 66.2042
CA 21.0094 1.41273 72.5331
CA 21.3432 1.42914 47.4307
CA 15.1721 -13.3977 67.0639
CA 23.8779 8.25827 71.2245
CA 32.8796 13.5193 55.508
CA 28.7158 12.3777 66.7685
CA 8.51624 20.6171 65.1152
CA 6.50332 18.6294 33.6543
CA 33.9093 2.14788 44.8102
CA 23.322 30.4002 32.5538
CA 15.8272 8.0035 40.6381
CA 28.1941 3.43926 53.4838
CA 14.4389 -10.3339 37.8306
CA 14.4574 -15.0723 43.271
CA 14.8752 -2.71994 88.9414
CA 9.54813 -4.58924 80.3662
CA 5.45243 1.60086 63.2348
CA 22.0139 12.9388 56.1153
CA 31.5779 23.3514 53.1943
CA 1.72312 -20.9219 79.7172
CA 8.46565 -1.78083 69.1637
CA 13.8444 23.1162 52.0082
CA -1.86603 12.351 68.2365
CA 10.3161 19.5759 61.0127
CA -0.97232 2.04684 55.9279
CA 30.6986 10.7934 76.1225
CA 19.682 -0.675399 56.1209
CA -1.19252 -4.63808 61.1696
CA 11.96 -8.4106 75.5672
CA 23.5706 6.61916 86.1029
CA 35.4922 20.5235 47.2867
CA 23.8397 -4.0804 59.8219
CA 9.04888 22.4239 61.9953
CA 13.2332 7.79595 44.3533
CA 33.662 19.057 46.384
CA 22.5122 29.3159 59.2668
CA 19.2435 28.5365 49.4946
CA 23.095 24.4505 63.4876
CA 33.694 8.22226 44.4574
CA 12.7731 20.352 13.8068
CA 6.95965 2.5517 76.0978
CA 7.92691 -10.5528 39.2624
CA 19.6139 -14.5261 67.5858
CA 6.42627 -11.6361 57.168
CA 6.13797 -7.33179 46.393
CA -2.24034 20.5594 49.5686
CA 23.8067 28.1417 38.3927
CA 21.1009 13.5183 72.3365
CA -3.0967 -9.6674 41.3487
CA 3.04499 13.7093 93.3674
CA 23.7307 -0.761945 58.1315
CA 20.8094 -0.59363 46.8127
CA 28.5608 10.7532 75.2794
CA 27.1337 29.1696 30.5873
CA 17.0573 -2.21667 92.3252
CA -3.86491 -10.8554 39.9666
CA 16.6 -20.1298 42.7513
CA -6.09762 -1.47936 46.1386
CA 33.3511 -0.102636 50.5535
CA 29.2159 3.61891 46.4595
CA 18.1073 -10.853 34.9952
CA 40.8411 -4.3983 54.8607
CA 27.4603 -5.40661 69.8766
CA 14.2507 21.2458 15.5283
CA 20.0813 -4.11189 55.3755
CA 35.8607 5.50907 59.666
CA 16.1256 -1.95888 80.6488
CA 15.4009 20.8011 11.791
CA 14.9774 25.9794 48.0281
CA 22.9065 31.7361 34.9319
CA -1.03643 -12.8682 35.8557
CA 26.9148 -3.44137 58.2757
CA 21.9686 25.9502 14.2123
CA 20.4234 -6.38417 72.7946
CA -0.708383 -16.8233 61.9936
CA 23.662 -6.50704 76.0036
CA 16.1973 17.008 28.3511
CA 6.11444 11.0137 63.9213
CA -3.531 6.55438 66.7688
CA 38.085 24.1358 44.9005
CA -1.92924 14.5845 61.0441
CA -1.87217 11.2137 55.4612
CA 20.8413 18.5432 52.8848
CA 21.2516 25.5227 39.517
CA 3.29256 13.3087 91.2768
CA 7.98691 13.2614 53.2599
CA 20.8106 4.88668 56.3076
CA 32.3673 -3.64125 59.5284
CA 17.8302 17.1773 26.7132
CA -11.3349 -5.98864 53.3245
CA 20.945 -1.75289 58.4734
CA 7.27969 -9.62034 61.1383
CA -2.66057 -5.36028 58.7234
CA 15.4017 -21.3302 41.0174
CA 13.2794 1.03359 80.6062
CA 19.3957 7.43409 80.4141
CA 38.9451 -5.97266 57.4044
CA 28.673 -4.51638 56.7185
CA 15.6936 18.7508 39.1805
CA 27.1572 12.7997 58.4401
CA 3.88209 11.2801 69.1431
CA 12.4602 19.6311 66.0465
CA 22.0622 32.3475 68.1172
CA 27.3011 9.60307 74.048
CA 12.3523 23.2372 55.2389
CA 10.7951 21.2885 50.5699
CA 18.1991 21.3417 65.0594
CA 10.4394 13.4496 88.2759
CA 23.2062 14.9017 73.0214
CA 6.57122 7.41548 88.8664
CA -12.555 -10.8798 56.3459
CA 27.5218 6.47915 72.4511
CA 11.8364 -5.04668 61.9187
CA 14.3561 2.19964 33.7526
CA 16.5086 20.5609 10.3274
CA 15.9082 -3.82518 55.2292
CA 34.9527 5.21883 52.8229
CA 34.3129 20.5673 50.7724
CA 24.938 -3.93327 39.9403
CA 17.8597 26.3289 15.4493
CA -5.65249 4.19521 56.2143
CA 25.5292 -6.23806 66.8082
CA 23.0658 13.2346 77.8573
CA 31.3889 -0.641627 53.5815
CA 46.6787 3.14186 57.8148
CA 23.7721 -0.991584 69.1512
CA 27.437 2.15667 50.5758
CA 35.3619 15.2037 42.8349
CA 32.5345 -4.08047 61.6109
CA 10.2816 -15.6285 77.8153
CA 25.0181 1.61416 80.2226
CA 25.5513 8.34484 50.2513
CA 22.1761 20.4209 48.622
CA 13.8451 26.332 54.3622
CA 31.8742 2.41093 54.9919
CA 22.8066 14.1782 38.4361
CA 12.6267 18.9367 31.4564
CA 38.2595 10.6404 54.0041
CA 26.6406 5.48398 68.1417
CA 9.49702 16.8106 50.0501
CA 0.166271 17.808 95.5981
CA 33.3394 0.402172 59.2067
CA 11.3852 -2.50254 67.0823
CA 0.959364 6.96839 57.94
CA 4.8159 -13.2263 49.473
CA 11.9569 15.5653 41.6531
CA -9.8292 -10.4414 56.7465
CA -0.754221 -19.634 81.8204
CA 27.658 5.53009 63.5903
CA -4.88678 17.7606 93.3512
CA 27.2792 -3.43921 42.9895
CA 12.357 2.76041 70.8545
CA 28.5071 0.343044 53.4254
CA 16.5738 -8.03882 65.3305
CA -2.94238 17.1345 55.8879
CA -9.92075 3.45176 47.6626
CA 0.646075 19.8491 65.6206
CA 20.6607 20.936 23.9594
CA 25.047 7.83252 68.2213
CA 14.0898 -4.39526 78.7644
CA 23.4152 -9.06391 73.1735
CA 30.1767 6.95367 79.3809
CA -0.70025 6.98941 56.1888
CA 39.1375 13.6469 56.3186
CA -3.02301 -0.0531036 68.8896
CA 24.0133 -8.55625 57.821
CA 42.6726 7.47788 61.8234
CA 12.6763 -3.81136 58.7333
CA -1.77376 -3.76477 37.9046
CA -3.79397 20.2711 55.8623
CA 22.3731 -12.932 75.151
CA 26.1885 18.9886 77.2432
