489

CA 16.8573 -37.1677 43.7594
CA 22.6956 -31.8288 65.8121
CA -21.0506 35.8934 42.5281
CA 19.02 -25.4388 67.4969
CA 38.7722 5.59799 60.4885
CA 23.5338 19.621 62.2838
CA 27.5206 18.7651 62.7339
CA 36.8925 3.33873 60.1818
CA -18.1479 -18.2172 57.7741
CA 4.55694 42.4647 58.8855
CA 22.771 3.32638 65.9877
CA 15.5645 -10.6435 51.5351
CA 7.28186 -21.5141 34.9048
CA 11.8384 -18.5188 73.8877
CA -2.26128 7.25445 82.4296
CA 12.9728 -16.6012 81.4942
CA 24.5845 25.4682 27.1048
CA 0.21468 19.0253 46.3876
CA 3.34667 12.9924 63.532
CA 11.9489 -4.32327 54.0299
CA 2.88504 39.1312 62.8913
CA 8.51153 -22.215 81.3743
CA 11.8077 -39.4115 60.3976
CA 34.2246 3.04237 54.7328
CA 29.2582 -4.42064 56.8281
CA 1.62342 25.8328 69.4239
CA 18.138 -16.3137 89.1265
CA -9.11804 30.0388 48.3293
CA 23.7397 3.78887 45.7199
CA 12.3718 14.7951 38.9492
CA 26.2094 10.5846 50.0179
CA 9.34335 -21.4051 74.8691
CA -4.42809 17.2614 75.1361
CA -3.91406 11.6229 81.4652
CA 15.6541 33.9627 59.7753
CA 14.4353 -20.6955 72.056
CA 8.94103 17.4479 56.1251
CA 6.01566 26.1248 35.9427
CA 20.6673 -6.02169 66.6769
CA 11.5646 -21.4344 72.3593
CA 5.47277 -16.0867 34.8266
CA 15.9371 -24.4657 71.3035
CA -9.05799 -21.4953 52.1704
CA 17.6668 -6.74876 62.4856
CA 5.88539 -21.6841 37.6965
CA -18.7895 -32.1916 31.8383
CA 24.0211 9.63136 43.6254
CA 20.2815 -20.3814 52.0765
CA -11.0388 30.3677 47.788
CA 27.5955 -28.3635 62.3614
CA 8.8351 -6.98921 48.5441
CA 17.6494 -32.6651 69.2926
CA 20.2925 23.6745 27.6182
CA 21.9733 19.7414 27.2909
CA 14.2241 -6.16714 71.4858
CA 7.98014 5.10979 66.119
CA 28.5117 -29.8132 65.9754
CA 15.3096 -3.56451 71.8333
CA 21.3425 -2.60901 76.6679
CA 7.1755 -22.6861 69.3361
CA 24.0818 4.24036 80.1041
CA -23.5976 11.4823 37.7795
CA 25.624 21.2728 26.6535
CA -14.5641 -25.3008 77.2967
CA 8.45356 -16.0308 74.8169
CA 9.71911 -2.93939 45.6367
CA 16.1904 16.6409 51.6844
CA 12.9126 21.7341 49.8986
CA -21.098 9.03732 36.9466
CA 15.9429 16.2622 55.9601
CA 6.85897 9.49658 72.5481
CA -20.3022 -1.16456 50.0373
CA 24.0336 -1.10274 79.9981
CA 22.9229 18.877 43.0348
CA 17.1324 -4.5377 58.7387
CA -24.6028 -10.2796 13.4274
CA -24.1527 13.9407 30.155
CA 15.6958 4.85999 65.0184
CA -5.18471 9.07027 66.9799
CA 15.8635 21.6002 51.3397
CA -1.86441 19.4303 43.4545
CA -13.2102 -13.0146 27.3327
CA 2.02855 33.6131 38.1514
CA 4.01875 25.5931 69.7413
CA 20.6308 -30.7018 65.8828
CA 19.7717 13.4201 44.7338
CA 20.8674 8.82142 26.0675
CA 4.94145 28.7426 63.7646
CA 26.3807 -3.14902 63.0883
CA 32.0235 -6.56973 57.5432
CA -8.98456 30.5632 65.2904
CA 12.0817 -11.6229 50.9417
CA -5.92025 15.9089 65.9227
CA 34.8673 11.1595 61.6471
CA 14.9446 -26.1452 72.0444
CA 13.3195 8.70649 67.2331
CA 4.77979 -14.0245 40.5786
CA 17.3531 8.84282 23.7428
CA -12.5523 -21.927 59.2307
CA 5.50718 -15.636 86.233
CA 8.65815 -12.4254 78.6186
CA 18.7137 -25.4715 78.5539
CA 24.8481 16.5715 62.4377
CA -14.9747 -18.2726 58.3596
CA 0.356305 16.8606 41.7529
CA 14.6479 -23.4886 73.2376
CA 10.038 -4.58441 53.8122
CA 49.9186 7.11752 55.5927
CA -15.8701 37.0652 42.6554
CA 14.6378 14.312 22.9339
CA -23.118 -21.2346 55.6691
CA 16.519 -28.8792 87.6256
CA 20.6508 -0.737364 81.8044
CA 20.3226 19.7229 54.188
CA 14.8665 -11.1 53.6551
CA -22.6539 15.7391 36.9535
CA 24.368 7.00989 48.6024
CA 19.1666 19.6396 59.5343
CA 52.7042 2.96991 51.3518
CA 9.68048 28.3542 34.7438
CA 14.0442 20.9881 60.0197
CA -8.08851 30.6759 70.0474
CA 12.9937 -13.2376 84.7161
CA -21.5979 9.62215 48.0812
CA 14.4838 -39.1672 61.9524
CA 20.0979 -2.94512 81.8226
CA 28.9191 5.88708 51.1544
CA 9.77055 -6.40295 42.0118
CA 14.8901 -25.3616 68.0167
CA 36.1295 0.43732 45.3357
CA 5.48054 -19.5744 44.032
CA -22.3407 10.4483 35.3106
CA 12.0634 -27.1633 71.6798
CA 17.1908 20.8572 43.8019
CA 11.8674 -29.4132 74.8354
CA 17.6541 -4.72852 63.754
CA 16.9812 -27.8125 66.4065
CA 4.4978 -22.8618 67.7442
CA -25.2823 13.8384 31.5805
CA -11.0624 12.1619 66.1592
CA 13.5716 -12.0618 88.0624
CA -17.8065 -34.1854 35.2677
CA 22.954 18.3421 25.4397
CA 12.6048 31.9459 60.8279
CA 13.8125 0.431074 16.3379
CA 26.9668 4.47932 51.1208
CA 31.1239 -3.57299 56.1067
CA 9.21899 -12.8133 42.9916
CA 10.7369 -27.3408 75.6679
CA -16.9382 -19.8792 76.8632
CA 15.5572 -9.97622 55.1808
CA 27.9876 15.9737 25.4163
CA 9.23369 -12.6296 54.6078
CA 4.39362 23.1117 38.3401
CA 16.6619 1.79727 14.3521
CA 23.634 16.5373 40.6375
CA 8.81631 -6.44489 39.0835
CA 7.69327 -18.9026 82.8401
CA -27.1291 17.6294 35.665
CA 14.5512 2.65583 61.6234
CA 23.0067 3.26905 63.6424
CA 5.92166 26.3206 40.5034
CA 26.6509 15.4326 52.7481
CA 21.8938 20.7238 47.3072
CA 10.6099 -22.8782 74.7557
CA 27.618 11.224 28.806
CA 12.6596 35.8776 58.1297
CA 7.92381 -19.591 69.5451
CA -5.72158 12.879 71.204
CA 9.13838 9.1066 71.3512
CA 21.8811 -1.27 20.0984
CA 27.7071 4.50937 67.6835
CA -22.66 11.42 50.2748
CA 7.37227 -13.3432 23.0464
CA 6.77563 2.84436 64.6963
CA 29.0909 3.66536 64.5264
CA 17.7085 3.56275 23.5903
CA 22.0051 -2.45403 63.3878
CA 10.5814 -16.5896 41.1783
CA 25.7143 3.01478 65.6003
CA 8.02344 -20.0765 80.6262
CA -6.28804 19.1367 40.7682
CA -23.9351 4.6437 49.6603
CA 3.57723 23.7809 65.1157
CA 4.03826 40.3606 59.6898
CA 18.2551 8.9281 21.1868
CA -17.6131 32.109 70.2305
CA 20.3271 0.0407993 51.5675
CA 7.97026 -30.8497 38.7619
CA 16.0829 -23.5358 82.689
CA 18.5819 30.9504 71.7453
CA 10.4643 -5.56395 55.4372
CA 17.2024 -19.9496 83.1526
CA 15.433 -30.4392 73.8266
CA -0.32165 7.91299 67.7581
CA -7.86568 15.0599 65.3096
CA -10.6602 14.4615 66.9394
CA 31.131 6.31988 61.4304
CA 9.45994 -22.063 71.3369
CA -24.3932 -18.3695 53.968
CA -18.4832 -1.32774 49.6065
CA 21.4208 17.3013 28.9997
CA 22.0027 -29.9625 69.4229
CA 24.3468 12.5413 26.3313
CA 20.1184 -0.653615 64.3743
CA -18.2362 -32.5444 39.7707
CA 37.0577 6.29831 59.6999
CA 5.40678 -26.4643 75.7989
CA 25.5013 17.8434 31.1965
CA 25.1639 19.3125 61.1115
CA 1.19396 10.1065 69.5798
CA 3.46512 -11.2521 85.5608
CA 3.88405 -9.17803 44.4186
CA -5.49854 11.2208 68.8074
CA -10.7496 -4.13982 62.6532
CA 6.6599 -25.9934 69.795
CA 1.14297 28.7086 72.8346
CA -22.2527 14.2586 38.903
CA 1.45607 22.8791 48.8805
CA 4.07995 -12.2623 44.8196
CA 3.50018 14.4289 38.3709
CA 19.2603 2.07401 27.8838
CA 21.5228 -0.209977 70.1497
CA 16.859 10.0445 25.7592
CA 1.14089 24.3934 66.1979
CA 20.9615 -29.0949 80.6329
CA -6.28539 -21.1835 51.1038
CA -6.86363 3.34928 74.4888
CA 24.6277 10.9605 19.0075
CA 15.9973 -12.4604 55.7651
CA 9.55148 -26.5702 74.3595
CA -22.1454 12.181 33.485
CA 9.6881 10.4349 67.2332
CA 17.3666 1.68849 71.1913
CA 15.5818 6.23255 61.9603
CA 16.0249 -21.9434 70.534
CA -25.7163 14.3583 35.8099
CA 5.14335 -12.8535 42.1753
CA -2.88827 20.2057 36.4114
CA 10.8689 -9.14886 69.8102
CA 1.71963 22.8927 68.0211
CA 9.53364 -20.91 73.0923
CA -25.8886 16.9854 49.8525
CA 26.2624 -35.5916 76.1285
CA 9.47933 20.2987 50.0736
CA 7.20702 4.42322 61.0143
CA 7.10984 23.6954 53.6143
CA -0.470144 22.906 36.8728
CA -23.6963 15.8271 58.8876
CA 3.82742 -11.2522 36.0939
CA 16.6419 -7.42681 55.1963
CA -21.1363 -10.8761 14.0901
CA 20.4164 -6.77437 70.5231
CA -11.0168 13.3089 68.8186
CA 11.3193 -10.1195 43.6049
CA 3.85478 -8.8907 39.1436
CA 7.88654 22.4671 51.2078
CA 13.407 -8.90222 43.0125
CA -6.66294 8.33223 91.1567
CA -23.246 8.344 41.0774
CA -3.39954 27.1865 61.6408
CA 27.3897 5.81898 64.23
CA 25.5939 -4.1817 48.3054
CA 5.97366 -22.0723 74.9734
CA 26.2736 2.19364 52.1613
CA 12.2504 -8.3889 53.3368
CA 11.0607 -24.2283 77.269
CA 26.5384 -0.820596 63.701
CA 10.3843 30.1787 36.1993
CA 24.2423 20.0843 26.6041
CA 24.7936 15.6345 53.1244
CA 28.0261 3.27914 53.2516
CA 14.3781 -21.6465 74.5069
CA -1.28453 -3.94647 47.5829
CA 12.6073 -12.5884 82.9562
CA -0.0996666 11.4751 77.3411
CA 31.6082 7.14098 53.9231
CA 16.6671 17.8891 46.2108
CA 7.12995 42.6495 59.2288
CA 21.0719 19.2795 60.2418
CA 5.07042 18.0988 42.7065
CA 12.8791 -6.08297 57.1326
CA 35.1988 8.07846 59.0875
CA 6.07466 -19.7312 75.4084
CA 5.1522 19.3185 71.2835
CA 9.02193 41.2781 59.0747
CA 11.3089 -29.2759 72.5216
CA 2.81917 21.2115 54.6926
CA -3.22652 15.8895 72.4161
CA 15.5495 -6.76527 56.6347
CA 4.82444 21.9492 57.3234
CA -28.2875 15.1249 54.416
CA 2.66129 2.85339 74.1015
CA 28.3296 -6.2436 53.9982
CA 34.3154 9.33266 60.9395
CA 16.9932 -30.2771 64.161
CA 27.9732 19.3972 28.2108
CA 8.51049 -3.668 43.5009
CA 2.25476 15.8235 61.5486
CA 2.57528 -10.053 41.9263
CA 3.84095 -17.4984 70.263
CA 24.4367 18.8169 28.1416
CA 8.69568 7.45223 65.8925
CA -26.3435 13.5172 40.0992
CA 6.9025 -3.90668 40.2319
CA 14.2301 -11.2687 82.5177
CA 22.5082 14.0267 45.4113
CA 2.72544 23.3724 60.7146
CA 6.8724 -5.55991 53.5446
CA 39.8819 8.3354 58.2109
CA 15.2892 -31.1811 45.2441
CA -5.98919 13.7767 66.8771
CA 20.9082 19.2331 51.1087
CA 8.63944 4.13141 63.8511
CA 15.8851 -10.2847 72.8658
CA 20.8722 -13.7016 69.8938
CA 10.0324 -10.7139 82.0649
CA 36.1558 -0.417852 58.6535
CA 14.9188 23.4559 45.5059
CA 16.5029 -1.26362 72.8569
CA 9.79874 -19.5331 75.0443
CA 13.3861 -23.4078 75.0758
CA -3.42493 10.1466 68.0908
CA 14.9512 -23.3276 66.558
CA 17.2943 -26.5564 74.7226
CA -17.888 -20.0099 57.3748
CA 17.7332 -26.0852 84.637
CA 23.1906 13.3866 17.8413
CA -31.7663 10.3202 64.5368
CA 12.0632 -24.3712 81.2998
CA 12.4394 0.0515349 76.1097
CA 19.6754 19.3596 33.1645
CA -1.73943 -3.44874 45.3969
CA 12.2728 19.6984 55.7042
CA 3.04025 23.7944 49.9403
CA 37.6996 4.46183 51.3668
CA 36.8463 7.02985 61.6347
CA 18.1124 18.0087 41.7053
CA 27.6797 -1.21274 55.0012
CA 18.4989 10.655 28.4994
CA 30.6802 4.63208 56.2507
CA 5.6786 -9.20135 74.4797
CA 21.0437 -27.4532 84.3823
CA 4.6693 29.3148 38.7337
CA 5.85991 -14.2593 36.4677
CA 27.5268 17.392 30.2394
CA 11.1313 -20.7096 81.3789
CA 10.4016 -11.6182 71.0767
CA 1.62003 42.514 61.9802
CA 15.4035 -26.8276 60.9181
CA -15.6322 16.7249 25.5394
CA -24.7562 -12.4798 16.1788
CA 8.27638 -8.84732 73.7613
CA 14.4514 -29.4557 45.4153
CA 14.9641 0.803025 59.6528
CA -10.5503 30.7414 64.2203
CA 8.99243 -15.3076 84.991
CA 12.7954 22.8021 45.2912
CA 17.0237 2.87925 69.8455
CA 8.53231 -3.49489 56.5578
CA 8.03603 -36.3161 61.7233
CA 13.4066 -23.0804 65.0701
CA -15.8128 -0.442276 46.4573
CA 16.2565 0.241727 73.9516
CA 26.3215 14.4572 22.5591
CA 11.8781 9.95393 69.2937
CA 18.6465 -28.8247 69.292
CA 5.78399 21.46 40.6661
CA 23.1361 19.4569 48.8254
CA 9.62942 -43.5114 60.1299
CA 7.454 10.696 63.4092
CA 24.1016 -1.20776 49.5837
CA 7.78754 -23.6649 76.7092
CA 21.4633 -0.374437 85.6684
CA 20.7942 -28.1838 82.3527
CA 15.5877 -22.7402 75.5272
CA 21.2806 -0.203161 77.5573
CA 4.15524 24.0582 71.3027
CA 5.62732 16.0748 60.3382
CA 4.61034 2.94357 64.9996
CA -8.18078 -0.547729 75.6715
CA 13.2084 -18.8179 68.4049
CA 13.9564 32.9064 63.6305
CA 15.2472 -5.6386 61.6557
CA 15.1534 -8.3143 65.4383
CA 27.5778 9.06814 31.1194
CA 21.3582 27.2532 27.1186
CA 12.0926 -27.4625 74.0442
CA -26.3465 18.8936 50.4079
CA 24.6445 -30.947 60.5256
CA 3.41109 -17.4244 38.0982
CA 28.2335 -4.31874 55.1277
CA 37.291 11.8192 63.0657
CA -21.5146 38.4124 41.7256
CA 25.6563 -31.0472 66.5214
CA 24.0148 16.6999 43.9903
CA 9.1857 -17.1997 71.9896
CA 17.709 -5.64478 76.5083
CA 0.874149 8.40492 74.6875
CA 18.5079 5.07177 84.4899
CA 37.2613 2.55328 48.0667
CA 23.7323 -30.0975 64.5551
CA 33.0833 10.6663 60.4442
CA 10.087 -32.899 41.259
CA -3.13609 13.8349 40.3601
CA 32.4084 4.69155 59.3257
CA 15.8499 -0.882458 82.4709
CA 2.26684 37.8715 64.1858
CA -25.7594 15.6557 38.8489
CA -24.364 0.999083 49.0208
CA -5.63665 0.742064 74.5725
CA -20.2451 29.2285 69.4358
CA -7.85434 7.49593 92.6514
CA -9.20014 12.3099 71.505
CA 24.696 -28.5229 64.0497
CA 12.9707 -16.5608 89.0508
CA 7.71668 8.72889 62.6875
CA 15.182 -26.1909 63.4262
CA -5.41167 31.1907 68.2826
CA 11.561 -1.83862 72.2663
CA -20.4298 1.64528 45.982
CA 13.8687 -26.6986 75.4936
CA 5.00875 25.728 37.6153
CA -5.39188 21.3899 39.4528
CA 32.8887 13.8228 48.9293
CA 14.7914 -7.19532 74.3853
CA -1.18782 16.9074 45.4204
CA 10.7137 -15.8418 79.1522
CA 33.6487 -0.35846 47.9921
CA 7.66195 -7.19351 82.5132
CA -6.97901 9.24552 68.3501
CA 3.11519 -28.9489 71.2067
CA 3.46811 5.52363 72.2777
CA 18.661 5.29614 25.3757
CA 8.42955 37.8469 60.5167
CA -13.9225 32.5214 43.4977
CA 3.41562 -5.73502 39.9556
CA 32.6523 7.89599 61.1416
CA -0.891726 31.1479 37.0785
CA 14.4489 -19.9676 78.7387
CA -6.67811 -5.64665 60.7422
CA 7.67221 11.387 68.3723
CA -26.4722 16.8952 37.6517
CA 6.64046 -28.3036 75.8834
CA -10.0444 5.52147 87.7068
CA 1.91892 -19.3793 40.1122
CA -17.4536 0.0704095 50.3932
CA 14.4389 6.95427 23.1765
CA 13.6202 22.4873 47.4324
CA -4.1555 2.08078 68.6439
CA 3.63886 13.9611 40.374
CA 4.07219 -21.7563 64.8857
CA 54.1953 0.635921 50.211
CA 36.9555 9.18375 42.3525
CA 5.24438 -11.9017 39.253
CA 6.98062 22.1967 49.028
CA 20.8666 -25.1696 79.7882
CA 35.1865 8.49283 54.2503
CA 33.2737 9.00497 54.987
CA 22.4894 11.0033 18.4206
CA 30.6961 6.74288 55.5749
CA 15.6221 -9.96489 84.1336
CA 29.2737 -35.4074 75.5797
CA 14.1693 -31.5091 81.6799
CA 25.768 16.7541 65.4674
CA 10.5964 -19.8639 76.8661
CA 20.5954 16.8078 39.9172
CA 7.16968 -14.5008 47.1179
CA 17.2265 -7.01542 53.4095
CA -19.5203 37.5959 43.1973
CA 1.92016 30.1847 68.3909
CA 11.6798 -7.78088 56.5711
CA 22.0361 1.34821 78.1357
CA 4.02529 23.8312 73.7956
CA 7.3968 -30.6681 72.4284
CA -27.0582 17.6196 39.4201
CA -5.9558 29.1114 67.1357
CA 16.719 -18.7314 79.8129
CA -3.95498 5.02344 69.7494
CA 5.53717 -18.1892 48.037
CA 14.6748 -28.5581 67.1581
CA 19.7307 1.57151 25.0725
CA -3.9553 16.8376 66.4132
CA 27.2656 17.2781 53.33
CA -0.994697 29.0507 72.4972
CA 7.33527 -15.6437 44.2138
CA 34.8603 5.55761 55.373
CA 0.491372 6.79056 69.8436
CA 21.5167 -27.6839 71.098
