489

CA 19.6534 2.85091 83.6523
CA 19.7692 26.2457 40.6461
CA 0.344503 -14.4761 72.8388
CA 37.2484 13.6962 75.7988
CA 11.8962 15.6895 77.4143
CA 19.9119 13.0476 42.9648
CA 2.42537 4.28526 61.0292
CA 21.318 0.727688 42.5061
CA 2.34161 8.47719 83.0312
CA -3.27257 -6.65015 56.4216
CA 6.22554 12.0788 83.4921
CA 22.2961 6.39025 54.2693
CA 5.26011 -13.8792 55.9031
CA 20.7064 2.93436 65.1709
CA 35.9354 -8.25871 54.8129
CA 17.4572 -16.8323 65.8138
CA 13.544 -1.53004 72.513
CA 29.1103 19.2215 78.1622
CA 14.8366 -12.68 47.021
CA 35.5964 10.5008 77.8114
CA -12.1721 -3.42786 43.9339
CA 12.9009 8.88642 60.124
CA 12.8805 17.9292 73.8951
CA 19.9077 23.6773 47.4921
CA 16.4545 -7.16435 59.7763
CA 13.8169 -19.2336 82.0681
CA 15.1692 1.37088 91.7809
CA 7.42792 15.2019 47.4806
CA 7.56917 11.182 55.4776
CA 4.83045 -16.1359 78.542
CA 9.87032 17.7499 49.8547
CA 24.6783 5.64389 40.827
CA 15.952 2.70716 36.3421
CA 21.9964 17.2856 63.2592
CA 15.4156 8.82002 37.5806
CA 28.8026 11.0263 75.4122
CA 19.4029 23.0569 19.8145
CA 15.2117 4.52194 90.6898
CA 40.6655 17.0873 59.3871
CA 28.1825 8.45146 55.3148
CA 26.3403 10.3638 51.8842
CA 18.4084 3.955 37.9135
CA 10.6097 -10.787 40.3855
CA 32.3239 5.65728 79.9141
CA 17.2349 9.07676 40.1938
CA 2.88187 14.993 71.1799
CA 34.9669 25.7842 54.2001
CA 18.6206 23.1961 25.1265
CA 24.2709 10.9026 65.846
CA 14.5192 2.34305 89.7557
CA 12.2046 25.6541 30.8932
CA 1.75048 9.51903 69.6274
CA 14.5652 18.2261 45.2676
CA 2.85877 13.5407 73.9821
CA 11.8014 13.129 35.2129
CA 26.8861 -4.55257 47.6634
CA 15.1215 1.15799 70.8593
CA 14.5437 22.1202 14.0378
CA 23.6158 -1.30464 92.0855
CA 29.1357 4.63795 71.8841
CA 4.43074 -9.54007 57.0465
CA 30.5512 1.03283 63.7889
CA 24.8035 22.6881 54.5076
CA 5.65136 10.5777 78.2594
CA 13.6041 24.5545 31.3818
CA 12.5553 -16.804 78.4979
CA 5.8551 16.1253 94.1787
CA 33.3156 15.584 72.777
CA 23.8779 2.71703 54.1954
CA 16.3674 -12.1192 54.3981
CA 18.4363 10.9956 41.7179
CA 16.1474 5.39645 75.2975
CA 34.8172 4.45427 79.2609
CA 21.7017 -11.8436 58.2534
CA 10.5842 18.5781 32.1306
CA 24.3609 15.1405 60.1468
CA 8.238 -16.1756 77.6151
CA 12.3315 8.1879 79.0194
CA 24.5471 4.38787 50.5811
CA 30.9469 -5.16356 53.4947
CA 27.7758 11.0353 68.9811
CA 49.9287 15.126 65.4227
CA 25.4747 -2.48702 72.8897
CA 12.2775 22.7544 49.1454
CA 9.64747 0.706115 36.0022
CA 49.3591 11.4848 65.6769
CA 43.9384 6.85039 62.9605
CA -2.79811 16.3311 61.3866
CA 31.5768 -2.38447 45.4707
CA 21.7858 22.9488 35.4995
CA 7.10163 -5.16092 46.3057
CA 35.0147 -3.24803 58.5256
CA 13.7687 18.8923 16.2898
CA 11.2482 16.7802 35.6285
CA 26.4078 8.14286 67.4049
CA 45.2113 6.23257 58.3576
CA 28.9039 6.14188 45.0358
CA 7.23034 16.4692 61.4894
CA 26.2994 1.45636 36.4317
CA -11.0515 -10.6853 59.1264
CA 27.0498 1.63769 88.4113
CA 37.1405 -2.55484 54.004
CA 15.0094 16.0065 51.2108
CA 21.0055 -18.0234 50.8984
CA 31.7666 1.18882 59.9875
CA 36.5182 12.9074 52.8082
CA -4.67005 25.1411 51.8995
CA 19.5967 10.2933 46.7496
CA 15.9879 -17.2865 48.0738
CA 15.3499 23.8865 59.6453
CA 25.3173 22.0521 67.7326
CA 21.0709 2.02446 67.4218
CA 19.6315 24.5824 61.1523
CA 14.8407 -2.83951 81.4856
CA 18.0091 -5.24056 60.9631
CA 19.0007 10.1519 27.5211
CA 20.904 -19.0911 46.9768
CA 30.0062 -5.13362 61.8836
CA 16.7596 29.7721 39.9089
CA -12.551 -4.81399 50.3938
CA 28.2731 13.1158 60.8692
CA 9.75738 28.5751 66.6832
CA 16.7402 18.6083 56.468
CA -5.68409 -9.33515 58.4932
CA 32.6828 22.5598 50.0918
CA 15.1481 23.9991 14.8869
CA 27.79 -1.41036 60.3275
CA 48.3233 4.4354 56.5716
CA 30.7057 12.7242 50.1733
CA 37.1033 -1.22488 81.5913
CA -13.1345 -7.48568 54.2845
CA 4.43521 18.2419 47.6971
CA 15.2425 26.3904 62.0743
CA 45.1391 5.07653 60.3584
CA 8.34623 14.7988 32.556
CA 26.4776 -1.98321 53.5894
CA 33.3901 9.65083 66.0675
CA 15.0745 26.7506 27.6964
CA 1.26686 14.3215 73.3058
CA -4.96557 -20.7485 82.7141
CA 37.0061 22.164 82.7456
CA 42.1258 16.8131 55.0299
CA 4.31777 22.6601 81.6137
CA 23.1669 2.95095 79.954
CA 32.8559 21.0598 80.3248
CA 23.746 -4.00454 69.5918
CA 14.6582 11.2238 60.2605
CA 14.6959 19.0847 47.4669
CA 0.0583175 -6.67786 59.9977
CA 25.74 7.91187 39.0857
CA 43.0107 2.66096 62.6597
CA 1.01121 22.7824 67.2006
CA 17.1425 -13.4687 44.8217
CA 34.9749 15.9572 45.8118
CA 28.5857 4.51405 54.5724
CA 1.04843 -16.6267 77.2236
CA 15.1682 21.5132 59.9306
CA 10.3093 -3.15019 61.2948
CA 30.0002 8.25205 54.3184
CA 33.5547 -3.79651 64.3887
CA 14.7988 17.3137 62.013
CA 16.7558 -22.1283 62.5874
CA 32.202 12.2282 71.9547
CA 4.11127 -11.597 55.5019
CA -11.9626 -6.35162 55.3527
CA 3.40537 -12.8007 57.0018
CA 35.3648 2.67668 56.3338
CA 30.5208 -0.630646 53.0157
CA 21.8273 8.19607 35.5943
CA 15.694 6.39323 78.0366
CA 18.4807 24.5014 69.5068
CA 14.6983 -0.607615 84.7555
CA 28.2195 13.4737 55.6587
CA 22.7193 -4.29482 50.6064
CA 26.6213 8.43675 36.9744
CA -8.55656 1.52316 46.1325
CA 14.0585 -18.0775 69.1866
CA 37.2254 -4.46435 64.195
CA 14.11 -13.1978 39.9781
CA 36.9055 8.97459 64.2499
CA 10.6711 11.4103 50.4582
CA 34.551 14.1709 54.9262
CA 20.1253 25.6113 17.1494
CA 34.5947 -6.59016 56.4968
CA 30.5693 10.3043 55.1482
CA 10.7823 17.0793 42.1022
CA 16.5493 3.92921 85.0052
CA 32.0772 -1.96304 84.617
CA 32.6781 18.2306 41.646
CA 36.9315 -3.91914 52.7732
CA 18.7456 -12.9027 62.5545
CA 6.5454 -2.07351 64.2829
CA 24.2822 -2.65708 46.8681
CA 33.385 5.13918 67.165
CA 19.5627 18.2393 22.2128
CA 9.15743 22.0011 61.2871
CA 45.6935 4.14293 56.5237
CA 32.1246 -9.11657 51.3234
CA 8.3479 17.6198 62.5067
CA 16.8921 22.1189 14.4126
CA 24.4507 -3.64798 62.7994
CA 19.5227 16.1201 53.8363
CA 9.72025 18.943 41.2664
CA 16.9094 21.8624 48.1622
CA 3.4861 11.1471 83.2537
CA 22.9576 5.21583 46.3852
CA 22.2376 -7.69599 68.9687
CA 7.43458 3.59805 73.2303
CA 17.3095 11.7675 61.1646
CA 4.10612 -17.6245 80.6895
CA 11.5814 29.2368 65.8158
CA -3.65218 -2.50312 63.3551
CA 4.30352 -6.71811 56.2505
CA 7.42602 7.55012 78.3333
CA 42.0673 12.7389 56.8159
CA 35.4977 -0.666676 60.9031
CA 14.5192 -20.8681 61.1558
CA 9.82215 23.0418 51.462
CA 16.9262 19.1209 59.9995
CA 4.74731 22.1183 59.3388
CA 26.0366 4.81995 62.2413
CA 9.00594 -10.1623 66.1236
CA 25.9919 0.260008 51.1929
CA 6.54078 -2.32135 42.9891
CA 15.453 -11.1211 40.5437
CA 23.6768 17.8187 36.3948
CA 5.82664 9.93006 64.3983
CA 31.4137 6.76188 44.8611
CA -3.91505 -3.17403 40.4053
CA 10.5566 23.3124 68.6757
CA 12.3938 27.7888 40.6771
CA 30.6523 9.51457 60.4006
CA 27.6639 -2.04714 38.2899
CA 19.4243 -13.4696 64.691
CA 23.2682 4.65761 39.4236
CA 21.3317 6.79998 41.9241
CA 23.5776 12.1462 44.3986
CA 18.3881 6.2546 65.579
CA 20.3394 -1.67276 91.3516
CA 14.9255 9.31551 64.4984
CA 13.8404 -3.83814 79.0473
CA 25.9322 -5.50471 53.8494
CA 17.247 26.62 44.5261
CA 3.05613 25.8044 66.2204
CA 8.72438 18.1505 47.4863
CA 21.6288 -2.43625 52.4182
CA 14.7394 0.888069 77.3056
CA 6.5961 -4.00458 63.0933
CA 19.3719 -17.3245 51.3446
CA 20.2657 15.7675 25.1386
CA 33.0677 3.62362 59.8856
CA 12.5689 19.0163 12.1994
CA 21.3361 19.1634 35.3229
CA 16.0625 20.2122 7.92476
CA 11.4823 -20.1206 82.6779
CA -3.32274 -2.79392 59.6657
CA 26.1398 -11.1789 62.9489
CA 31.6606 -0.356537 50.8668
CA 20.3377 -19.7101 65.0659
CA 7.73033 -24.9863 76.2184
CA 10.765 -10.0567 78.9083
CA 9.40677 -11.3905 77.3585
CA 31.8607 16.6005 75.4315
CA 24.6844 26.1745 51.2217
CA 5.586 10.3631 86.9638
CA 26.0626 9.63272 71.1936
CA 24.3321 5.42904 48.5742
CA 7.86421 -13.3133 58.653
CA 41.4329 14.1136 53.889
CA 20.5676 29.908 45.1064
CA 35.1145 0.0657236 83.6101
CA 10.6644 20.6154 38.3679
CA 23.0695 12.0116 70.81
CA 23.8724 1.67655 35.7612
CA 13.3293 6.75464 84.1758
CA 24.8268 2.71164 80.8098
CA 17.8457 -22.2269 66.9554
CA 18.456 29.0292 39.1326
CA 9.91298 4.04135 55.923
CA 1.13271 9.44477 79.5122
CA 12.868 -2.51068 81.1013
CA 11.382 14.2506 31.9754
CA 0.692493 18.939 53.1137
CA 26.3631 4.61608 42.8734
CA 22.3466 -0.0259454 52.702
CA 7.29213 -12.9546 77.3247
CA 16.92 22.7886 32.4942
CA 15.3643 13.3748 25.1804
CA 11.3032 21.7551 14.9404
CA -6.60694 -1.1134 42.9608
CA 11.1361 6.72408 59.5249
CA 11.8127 -19.776 64.7267
CA 23.4604 23.5448 67.6887
CA 17.7512 15.5631 40.9511
CA 28.4776 4.95475 83.6366
CA 14.2023 -14.0839 59.6292
CA 33.4925 24.9502 50.5908
CA 19.4788 -14.4582 48.5552
CA 18.1085 -13.1719 50.151
CA 18.4873 16.9375 8.20233
CA 7.56897 13.8314 65.7488
CA 17.6599 -3.48581 35.342
CA 11.9498 24.3696 37.1239
CA 13.4087 -14.859 79.1428
CA 5.60956 -3.9333 80.3578
CA 18.311 11.8919 65.6678
CA 36.7265 23.7425 83.7783
CA 11.8238 4.92814 73.7404
CA 22.3077 -14.0307 48.3312
CA -0.879031 16.8559 52.1209
CA -2.45673 -20.6847 79.4399
CA -5.25031 -6.63895 59.0584
CA 22.6948 7.60391 59.4689
CA 9.22666 -1.79528 38.743
CA 39.1729 10.3766 59.2303
CA -0.48409 -3.06111 63.3345
CA 23.5434 22.1848 69.4263
CA 16.3695 22.1625 69.9264
CA 29.555 19.729 60.1322
CA 19.9041 -11.7114 61.1588
CA 15.7546 3.04755 60.1692
CA 30.081 -5.38256 49.2792
CA 26.4136 15.1962 47.1624
CA 15.6135 28.6343 64.4804
CA 27.7502 14.5555 65.7192
CA 26.6375 -6.7863 62.0444
CA -15.0442 -4.93105 45.4359
CA 3.59326 1.40326 65.2008
CA 22.684 11.446 46.3018
CA 25.2589 5.88828 44.7347
CA 32.6467 -0.614036 42.226
CA 9.46984 12.4339 55.6576
CA 12.897 4.57005 62.7624
CA 17.7917 1.08199 61.1818
CA 8.20656 17.5934 65.5374
CA 6.66767 -7.96911 41.5074
CA 45.4796 13.113 53.7367
CA 27.404 5.78543 85.4418
CA -1.81943 18.5743 53.6064
CA 18.6544 0.0094772 64.0673
CA 31.0894 0.646789 47.1252
CA 9.85129 -7.50321 80.2593
CA -3.35563 -9.38591 58.0229
CA 19.5101 13.699 63.8484
CA 21.6278 25.8072 61.9074
CA 17.0697 23.9994 65.3297
CA 9.07065 16.7151 37.0193
CA 12.2171 -9.37243 60.1744
CA 45.3759 11.3928 63.6075
CA 18.0497 12.1389 28.2971
CA 19.3679 25.6378 57.7061
CA 21.0108 4.012 50.7054
CA 14.0712 19.9967 69.7785
CA 26.0204 11.1451 57.5468
CA 29.6052 -8.77433 52.6113
CA 15.3257 -5.32398 56.924
CA 9.91935 -0.397531 68.0718
CA 43.8774 13.8438 59.019
CA 35.1879 2.63872 79.0917
CA 2.64267 -10.4445 77.6587
CA -11.1063 -1.21768 46.7446
CA 32.5054 3.09582 49.0838
CA 23.3206 -7.08224 74.99
CA 7.21631 14.9817 85.903
CA 23.2798 -12.967 53.3072
CA 17.3941 3.24437 71.6802
CA 12.8469 -3.49287 83.4101
CA 15.2875 -0.435447 80.2914
CA 27.24 1.56924 86.0023
CA 20.937 11.7518 46.9683
CA 14.5183 32.0559 38.8717
CA 3.55485 9.32365 84.5311
CA 19.3979 3.47917 68.6664
CA 17.6278 -5.65762 57.3747
CA 17.1676 17.649 62.1695
CA 31.1916 4.6791 76.9034
CA 3.21378 -3.43959 38.8297
CA 33.72 12.7709 51.8102
CA 4.41632 -0.434885 60.5633
CA 18.7768 -19.7023 44.5134
CA 19.2131 3.01781 57.9311
CA 22.5535 15.6125 19.8032
CA 35.8607 5.50907 59.666
CA 18.411 -7.34207 71.0769
CA 7.51817 19.3089 83.611
CA 25.7889 -12.9472 55.0997
CA 33.4553 4.07989 46.4267
CA -5.86429 20.7752 53.1866
CA 29.8946 14.1639 51.279
CA -9.39499 -5.28163 57.9041
CA 16.0033 13.2362 78.0821
CA 0.325527 -3.87893 56.9951
CA 29.4516 8.10986 72.6863
CA 13.3418 3.39392 57.8298
CA 24.3995 -7.95889 54.2442
CA -0.281758 -2.35123 54.7177
CA 9.09393 -16.4511 68.318
CA 32.4748 -9.77082 53.23
CA 22.1765 24.0051 54.1076
CA 21.7718 2.90278 76.2735
CA 23.4037 -7.45369 59.1001
CA 23.2435 -3.38335 74.423
CA 19.427 17.5402 36.811
CA 29.9394 2.21134 48.7948
CA 31.3149 2.8208 78.2333
CA 7.27844 -14.4354 79.2244
CA 5.21743 15.7662 73.1945
CA 15.0455 -0.670732 32.3347
CA 20.2083 14.6048 44.1767
CA 17.0565 -8.74362 42.4306
CA 23.8007 0.773782 38.6505
CA 7.55445 -1.89752 41.4969
CA 15.9741 -15.1032 42.101
CA 4.47896 11.3465 73.0648
CA 25.642 3.47373 41.3622
CA 44.0576 11.7705 57.1544
CA 11.2011 15.9683 12.9776
CA 21.3401 -1.28178 78.1404
CA 5.63904 -14.98 76.5158
CA 29.7102 13.6342 69.2173
CA 6.25849 23.6368 66.5157
CA 28.6577 16.1679 77.4411
CA 27.2035 3.36507 53.3882
CA 25.169 -2.73044 55.9062
CA 17.2886 10.981 45.9798
CA 29.0431 18.1546 56.0685
CA 39.7048 14.8816 56.3409
CA 28.4986 17.2081 58.8673
CA 9.24132 -11.2525 60.8571
CA 14.6263 -13.5796 42.7293
CA 21.5101 -14.9051 50.2514
CA 7.38958 13.5612 53.1994
CA 25.7423 22.3295 58.0336
CA 16.9886 26.988 39.0702
CA 34.3129 20.5673 50.7724
CA -1.65821 20.9619 57.8758
CA 17.8597 26.3289 15.4493
CA 2.40905 5.58088 62.6676
CA 3.97724 15.6002 50.2146
CA 28.2237 -2.29117 71.8044
CA 9.86944 17.7973 91.6884
CA -0.43787 -1.5389 37.5559
CA -4.40225 -5.04964 40.2651
CA 24.2331 18.0514 66.5263
CA 13.5595 19.4904 38.2948
CA 18.0686 26.3981 59.0168
CA 19.2986 9.18207 63.0801
CA 29.8577 -3.37624 67.1456
CA 34.7779 -1.57827 54.8291
CA 23.8995 -3.27266 53.5321
CA 31.0587 4.51108 70.4559
CA 13.6251 9.88364 54.9045
CA 19.2686 26.0565 44.4389
CA 12.6447 21.2992 53.0356
CA 0.293265 0.144694 61.6948
CA 36.6214 17.686 49.9402
CA 26.6398 0.554825 91.1501
CA 10.829 -6.5941 36.1023
CA 8.41558 13.1248 89.3149
CA 14.3065 0.823361 72.9386
CA 1.15114 13.3425 64.4098
CA 14.8487 17.9671 55.0523
CA 16.1113 23.9157 12.7423
CA -9.8292 -10.4414 56.7465
CA 21.8097 -13.097 61.9291
CA 32.6025 -1.03601 55.6007
CA 8.047 19.8359 66.8754
CA 16.4547 -13.5135 58.208
CA 20.8748 -15.1875 61.0976
CA 16.5274 -0.344673 83.1215
CA 36.6483 -10.2425 53.3786
CA 9.5405 -20.4959 75.2563
CA 19.1604 3.81925 61.7502
CA 11.4261 15.8045 33.2029
CA 35.3114 7.19147 57.6001
CA -14.534 -6.50685 53.4519
CA 14.2175 20.6375 50.2628
CA 13.1114 14.0636 11.2832
CA -6.20852 22.9176 55.0243
CA 10.6238 8.4061 84.045
CA 11.6897 -9.16462 80.9651
CA 44.8601 15.3703 55.5515
CA 34.6709 -4.89992 63.3616
CA 11.9717 -11.6071 58.7399
CA 16.2238 15.1965 57.4077
CA 13.6077 12.3214 78.0461
CA 18.1205 -3.79077 59.4569
CA 9.55505 20.8711 48.026
CA 19.3571 23.5715 67.9967
