489

CA 14.3811 0.635884 61.366
CA 26.8664 -3.03753 34.1643
CA 37.7646 1.18193 54.9383
CA 48.8095 8.47686 54.4856
CA 11.8962 15.6895 77.4143
CA 46.8866 15.9251 68.1597
CA 23.936 4.37719 64.5296
CA 11.1098 19.3422 52.6722
CA 2.34161 8.47719 83.0312
CA 9.85955 -20.0397 65.5475
CA 6.22554 12.0788 83.4921
CA 6.75095 23.471 34.7676
CA -8.44575 -0.494551 43.8972
CA 18.2968 3.4624 70.1609
CA 13.9142 -12.1591 58.6029
CA 17.4572 -16.8323 65.8138
CA 14.9659 21.3785 12.3378
CA 29.1103 19.2215 78.1622
CA 27.5091 3.1532 61.0517
CA 35.6926 19.2039 83.521
CA 20.1744 1.45497 82.4786
CA 19.2814 16.7309 79.1848
CA 12.8805 17.9292 73.8951
CA 19.9077 23.6773 47.4921
CA 11.4491 16.5868 7.71305
CA 13.8169 -19.2336 82.0681
CA 15.9028 14.465 63.514
CA 1.13556 14.7695 53.6232
CA 7.56917 11.182 55.4776
CA 4.83045 -16.1359 78.542
CA 21.9618 14.6433 65.8122
CA 24.6783 5.64389 40.827
CA 15.952 2.70716 36.3421
CA 14.1279 20.7311 34.1802
CA 15.4156 8.82002 37.5806
CA 9.2657 -13.5062 77.3994
CA 19.4029 23.0569 19.8145
CA 22.4405 9.66535 62.0408
CA 40.6655 17.0873 59.3871
CA 28.1825 8.45146 55.3148
CA 11.8561 21.7575 53.6456
CA 18.4084 3.955 37.9135
CA 10.6097 -10.787 40.3855
CA 47.7979 12.8074 63.2445
CA 17.596 -12.3414 73.3279
CA 16.1139 2.41462 88.5441
CA 34.9669 25.7842 54.2001
CA 18.6206 23.1961 25.1265
CA 16.6246 -0.198936 68.8105
CA 10.993 17.683 64.9714
CA 7.78739 19.303 79.5403
CA 1.75048 9.51903 69.6274
CA 34.4087 -1.34782 52.933
CA 17.9715 21.9116 67.6972
CA 44.6293 9.36916 63.8031
CA 12.4108 -14.6745 42.8792
CA 15.1215 1.15799 70.8593
CA 3.83246 -7.50846 77.3443
CA 23.6158 -1.30464 92.0855
CA 29.1357 4.63795 71.8841
CA 4.43074 -9.54007 57.0465
CA 30.5512 1.03283 63.7889
CA 32.0241 -1.678 72.7563
CA 5.65136 10.5777 78.2594
CA 13.6041 24.5545 31.3818
CA 38.4022 -0.513407 55.9392
CA 5.8551 16.1253 94.1787
CA 10.7499 2.12947 56.5019
CA 22.6121 -2.64482 62.5116
CA 16.3674 -12.1192 54.3981
CA 19.0513 14.3539 37.478
CA 18.0304 19.7183 55.571
CA 30.5736 12.6913 70.3813
CA 7.8347 25.9361 47.2347
CA 23.795 18.9788 66.6058
CA 7.7823 17.4885 91.2713
CA 22.5706 9.5194 70.6423
CA 10.1468 -11.7482 73.8021
CA 20.7013 5.46907 45.2227
CA 19.994 27.22 40.186
CA 27.7758 11.0353 68.9811
CA 49.9287 15.126 65.4227
CA 24.4583 -0.0616453 69.4255
CA 22.5108 21.9055 40.2388
CA 9.64747 0.706115 36.0022
CA 27.2421 -11.039 64.4158
CA 43.9384 6.85039 62.9605
CA 30.0317 19.7073 30.8688
CA -1.8885 18.9804 68.2601
CA 16.7398 18.0511 54.3209
CA 7.10163 -5.16092 46.3057
CA 37.8414 6.3503 64.6727
CA 13.7687 18.8923 16.2898
CA 23.676 -17.0094 66.721
CA 21.9574 -0.836245 73.9276
CA 45.2113 6.23257 58.3576
CA 28.9039 6.14188 45.0358
CA 2.7076 16.4646 66.8882
CA 13.5526 27.2489 29.7526
CA 27.0755 18.0812 44.3899
CA 27.0498 1.63769 88.4113
CA 29.6949 8.10029 81.0672
CA 37.1428 1.14608 47.29
CA 13.7585 -12.0025 62.8346
CA -3.32862 -7.19952 63.5937
CA 20.5002 3.40567 67.1007
CA 34.8464 -12.6656 52.7157
CA 46.1945 13.3496 57.7421
CA 15.9879 -17.2865 48.0738
CA 15.3499 23.8865 59.6453
CA 29.5182 -8.22944 64.2359
CA -0.435678 -0.654732 65.5036
CA 19.6315 24.5824 61.1523
CA 17.6677 -11.2928 65.1825
CA 22.0704 27.2535 60.3674
CA 21.4117 -4.20102 65.5036
CA 20.904 -19.0911 46.9768
CA 14.6687 -9.55354 73.7909
CA 23.1618 0.4577 49.7674
CA -12.551 -4.81399 50.3938
CA 5.41639 -5.04605 66.357
CA 22.4322 2.58679 36.5563
CA 16.7402 18.6083 56.468
CA 34.4509 14.781 52.3758
CA 27.4496 17.0417 60.3834
CA 15.1481 23.9991 14.8869
CA 27.79 -1.41036 60.3275
CA 48.3233 4.4354 56.5716
CA 36.7028 -14.0233 52.7357
CA 24.4749 14.1598 67.9828
CA -13.1345 -7.48568 54.2845
CA 4.43521 18.2419 47.6971
CA 26.022 10.8263 74.1887
CA 45.1391 5.07653 60.3584
CA 13.3481 -19.6683 70.3433
CA 26.6957 1.3227 74.2136
CA 13.6863 17.2096 44.4994
CA 15.0745 26.7506 27.6964
CA 23.6308 4.22731 66.3794
CA 40.0464 7.0655 60.9336
CA 29.7013 10.0464 78.6803
CA 9.74495 -8.25541 57.3232
CA 15.5959 -20.5934 49.356
CA 23.1669 2.95095 79.954
CA 32.8559 21.0598 80.3248
CA 22.9462 29.3052 46.8154
CA -3.23912 13.8285 73.6163
CA 16.6013 19.5538 64.6516
CA 0.0583175 -6.67786 59.9977
CA 5.75798 10.8756 52.8654
CA 16.0622 -9.33026 44.0026
CA 36.3062 4.55043 52.9237
CA 6.86614 -9.37372 57.8984
CA 34.9749 15.9572 45.8118
CA 28.5857 4.51405 54.5724
CA 1.04843 -16.6267 77.2236
CA 15.4404 1.6173 38.8412
CA 35.127 2.21494 54.2455
CA 30.0002 8.25205 54.3184
CA 33.5547 -3.79651 64.3887
CA 15.6983 16.3225 78.8315
CA 25.1229 11.2617 42.5324
CA 32.202 12.2282 71.9547
CA 25.6081 -0.0803392 37.4367
CA 30.645 2.15285 89.5987
CA 3.40537 -12.8007 57.0018
CA 35.3648 2.67668 56.3338
CA 18.9465 20.4107 47.2607
CA 50.7894 10.5551 53.8517
CA 20.1948 -0.013398 70.8099
CA 6.39626 -3.86393 59.5656
CA 14.6983 -0.607615 84.7555
CA 22.5813 -6.30628 46.529
CA 27.2759 18.4521 34.1905
CA -8.47324 -2.93468 54.057
CA -8.55656 1.52316 46.1325
CA 14.0585 -18.0775 69.1866
CA 11.38 23.2539 39.1344
CA 14.11 -13.1978 39.9781
CA 8.84894 1.25285 60.5865
CA 10.6711 11.4103 50.4582
CA 7.03153 -1.74018 35.5628
CA 29.441 6.32187 55.6856
CA 18.2699 -4.00495 63.2722
CA 6.99026 22.7415 82.1971
CA 10.7823 17.0793 42.1022
CA 16.5493 3.92921 85.0052
CA 17.792 6.73117 74.1158
CA 19.0591 5.25777 79.6764
CA 11.4883 -13.4646 57.1043
CA 18.7456 -12.9027 62.5545
CA 6.5454 -2.07351 64.2829
CA 7.52969 25.6506 38.6897
CA 34.6726 10.1611 60.6787
CA 19.5627 18.2393 22.2128
CA 9.15743 22.0011 61.2871
CA 28.7374 9.81311 62.2308
CA 32.1246 -9.11657 51.3234
CA 8.3479 17.6198 62.5067
CA 19.608 14.5872 41.6577
CA 24.4507 -3.64798 62.7994
CA 19.5227 16.1201 53.8363
CA 20.876 2.4067 60.9054
CA 34.5916 17.9499 51.934
CA 30.2734 2.76387 84.6899
CA 28.694 18.5906 62.1641
CA 12.3619 10.567 84.0518
CA 16.0633 -14.8709 62.839
CA 10.6958 22.8097 27.1035
CA 8.45295 3.22281 62.9573
CA 20.3891 -4.81237 79.0581
CA 35.3451 3.11744 63.4752
CA 28.0475 12.202 70.4698
CA 11.7066 5.75449 88.2184
CA 23.2691 -16.8232 49.6239
CA 35.4977 -0.666676 60.9031
CA 21.859 6.06393 78.5519
CA 9.82215 23.0418 51.462
CA 16.9262 19.1209 59.9995
CA 32.5349 2.41418 65.3904
CA 24.6147 0.0653713 88.4713
CA 9.00594 -10.1623 66.1236
CA 13.7372 -14.3932 74.6445
CA 6.54078 -2.32135 42.9891
CA 15.1886 -12.5595 45.3725
CA 23.6768 17.8187 36.3948
CA 36.3367 -3.61649 43.8626
CA 24.4057 0.601678 43.1947
CA 7.20532 -11.0902 45.5854
CA 48.2315 13.0996 58.8461
CA 12.3938 27.7888 40.6771
CA 28.4125 18.9414 80.2224
CA 20.1437 -10.8136 57.3898
CA 33.5722 16.2734 53.4527
CA 10.2509 9.84514 47.9843
CA 47.1885 9.21114 56.7972
CA 23.5776 12.1462 44.3986
CA 2.46235 14.4658 75.7773
CA 18.1438 23.0374 37.0762
CA 14.9255 9.31551 64.4984
CA 22.9253 -7.28708 86.6628
CA 43.0334 12.0718 61.3179
CA 17.247 26.62 44.5261
CA 7.20438 -7.30058 81.5818
CA 8.37186 24.8561 36.0887
CA 25.1093 -5.32526 73.5937
CA -5.53055 1.33676 45.5053
CA 9.76709 10.7648 82.3663
CA 19.3719 -17.3245 51.3446
CA 20.2657 15.7675 25.1386
CA 30.8312 0.244378 88.4472
CA 12.5689 19.0163 12.1994
CA 21.3361 19.1634 35.3229
CA 16.0625 20.2122 7.92476
CA 11.4823 -20.1206 82.6779
CA -3.32274 -2.79392 59.6657
CA 26.1398 -11.1789 62.9489
CA 14.3871 8.11352 56.2081
CA 20.3377 -19.7101 65.0659
CA 7.73033 -24.9863 76.2184
CA 9.76577 26.5015 35.7444
CA 20.6245 1.51839 68.7091
CA 31.8607 16.6005 75.4315
CA 12.3906 9.50614 47.3485
CA -3.18754 0.578835 60.7522
CA 26.0626 9.63272 71.1936
CA 24.3321 5.42904 48.5742
CA 5.44304 -6.313 76.7018
CA 9.65976 16.6954 88.2525
CA 20.5676 29.908 45.1064
CA 11.0119 8.69137 50.7824
CA 4.16668 8.66178 82.7646
CA 23.0695 12.0116 70.81
CA 23.8724 1.67655 35.7612
CA 13.3293 6.75464 84.1758
CA 24.8268 2.71164 80.8098
CA 36.3618 -4.18353 59.716
CA 18.456 29.0292 39.1326
CA 17.122 6.31435 78.8469
CA 1.13271 9.44477 79.5122
CA 12.868 -2.51068 81.1013
CA 38.6271 5.69944 60.3249
CA 0.692493 18.939 53.1137
CA 23.1103 -3.56925 88.9198
CA 22.3466 -0.0259454 52.702
CA 8.10077 14.15 10.3779
CA 29.3339 2.89961 79.8347
CA 11.6283 18.3114 45.9527
CA 11.3032 21.7551 14.9404
CA -6.60694 -1.1134 42.9608
CA 14.8016 21.4383 61.595
CA 1.15786 -1.15105 39.5351
CA 10.0039 13.9622 6.40545
CA 27.8221 8.68344 80.1321
CA 42.0567 11.0402 62.5609
CA -0.749345 17.546 64.2504
CA -1.72201 15.7657 73.6422
CA 19.4788 -14.4582 48.5552
CA 18.1085 -13.1719 50.151
CA 18.249 22.0965 50.6276
CA 7.56897 13.8314 65.7488
CA 32.2747 -5.45873 64.0416
CA 46.516 11.3061 59.2819
CA 13.4087 -14.859 79.1428
CA 7.71014 3.50423 65.9213
CA 13.0969 1.16465 36.9513
CA 9.04427 16.2252 92.6939
CA 18.6463 -7.07388 73.779
CA 22.3077 -14.0307 48.3312
CA 21.7577 11.6481 43.415
CA 10.8441 -0.727647 74.6507
CA -5.25031 -6.63895 59.0584
CA 22.6948 7.60391 59.4689
CA 9.22666 -1.79528 38.743
CA 22.5078 18.3468 50.9086
CA 38.8961 4.65985 65.0004
CA 16.6702 13.7925 54.2451
CA 16.3695 22.1625 69.9264
CA 26.0091 -4.16792 87.5175
CA 13.5678 -20.3542 49.5704
CA 10.4329 22.1929 62.6092
CA 30.081 -5.38256 49.2792
CA 26.4136 15.1962 47.1624
CA 11.2467 -9.61866 43.8625
CA 33.7378 6.21129 60.684
CA 16.408 9.93149 68.0719
CA 8.59545 -10.2041 58.1237
CA 3.59326 1.40326 65.2008
CA 21.4692 13.9571 41.5233
CA 30.1805 16.9204 50.969
CA 5.93225 -3.84036 35.7033
CA 19.0053 17.2901 39.3183
CA 12.897 4.57005 62.7624
CA 17.7917 1.08199 61.1818
CA 8.20656 17.5934 65.5374
CA 6.66767 -7.96911 41.5074
CA 33.1883 7.17311 55.2107
CA 18.5452 -5.00634 37.6646
CA 23.6604 7.74785 68.0285
CA 18.6544 0.0094772 64.0673
CA 31.0894 0.646789 47.1252
CA 14.5376 -16.1249 45.4581
CA -3.35563 -9.38591 58.0229
CA 19.5101 13.699 63.8484
CA 21.6278 25.8072 61.9074
CA -0.0043919 -7.35318 57.3501
CA 9.07065 16.7151 37.0193
CA 27.5151 14.1127 54.4683
CA 45.3759 11.3928 63.6075
CA 21.0032 -0.933403 40.358
CA 19.3679 25.6378 57.7061
CA 21.0108 4.012 50.7054
CA 14.0712 19.9967 69.7785
CA 26.0204 11.1451 57.5468
CA 2.10002 -2.29705 75.969
CA 19.1026 -17.2162 64.3986
CA 13.7987 6.21255 56.4292
CA 43.8774 13.8438 59.019
CA 35.1879 2.63872 79.0917
CA 22.113 14.7744 77.7929
CA -11.1063 -1.21768 46.7446
CA -0.168636 7.22175 59.3597
CA -0.795262 14.7266 50.887
CA 36.4549 2.07595 51.2719
CA -0.153515 -8.19443 66.2191
CA 36.3113 15.1941 53.3706
CA 25.3077 -2.38339 89.56
CA 9.80631 31.9064 39.2698
CA 19.8942 1.07736 59.8683
CA 20.937 11.7518 46.9683
CA 22.1281 4.21665 48.9854
CA 12.6052 16.7288 49.6118
CA 19.3979 3.47917 68.6664
CA 19.809 19.9531 39.0145
CA 17.1676 17.649 62.1695
CA 31.1916 4.6791 76.9034
CA 3.21378 -3.43959 38.8297
CA 33.72 12.7709 51.8102
CA 4.41632 -0.434885 60.5633
CA 25.2264 10.4614 54.498
CA 23.4295 -15.3951 47.9801
CA 22.5535 15.6125 19.8032
CA 17.94 19.0135 51.9048
CA 18.411 -7.34207 71.0769
CA 7.51817 19.3089 83.611
CA 25.9123 23.2204 62.4802
CA 21.6466 7.3939 57.4962
CA 18.6977 1.08927 87.5952
CA 23.398 8.09552 61.9846
CA -9.39499 -5.28163 57.9041
CA 16.0033 13.2362 78.0821
CA 0.325527 -3.87893 56.9951
CA 25.988 3.87497 81.8881
CA 13.3418 3.39392 57.8298
CA 16.7489 24.4609 43.3157
CA 13.8021 -11.7377 43.0313
CA 18.2852 -18.6396 69.0277
CA 0.331546 8.12238 61.3593
CA 22.1765 24.0051 54.1076
CA 21.7718 2.90278 76.2735
CA 37.9784 -2.95512 60.4439
CA 16.192 23.8259 63.555
CA 19.427 17.5402 36.811
CA 29.9394 2.21134 48.7948
CA 19.2376 12.7422 39.6825
CA 18.9983 19.0986 44.4991
CA 5.21743 15.7662 73.1945
CA 26.2752 -0.97837 35.9683
CA 20.2083 14.6048 44.1767
CA 11.9139 10.6977 49.228
CA 18.76 24.0348 13.4269
CA -8.2718 0.410903 48.772
CA 8.02501 -11.1128 55.7182
CA 4.47896 11.3465 73.0648
CA -1.02228 15.5483 65.7855
CA 44.0576 11.7705 57.1544
CA 12.7426 21.1707 68.2228
CA 21.3401 -1.28178 78.1404
CA 21.8885 -17.5107 67.2241
CA 8.52846 23.8007 47.9184
CA 13.4739 -11.4389 75.0184
CA 8.43867 13.5675 83.7769
CA 27.2035 3.36507 53.3882
CA 31.5889 -3.35502 52.9125
CA 8.85831 -3.67927 80.3719
CA 29.0431 18.1546 56.0685
CA 19.7004 22.7066 57.5544
CA 6.92528 0.539708 34.705
CA 9.24132 -11.2525 60.8571
CA 32.981 0.286951 48.1394
CA 21.5101 -14.9051 50.2514
CA 17.7929 21.6678 42.6555
CA 12.9147 -18.4702 79.4264
CA 9.42989 -19.798 69.0052
CA 34.3129 20.5673 50.7724
CA -1.65821 20.9619 57.8758
CA 17.8597 26.3289 15.4493
CA 2.40905 5.58088 62.6676
CA 3.97724 15.6002 50.2146
CA 28.2237 -2.29117 71.8044
CA 9.86944 17.7973 91.6884
CA -0.43787 -1.5389 37.5559
CA 38.4961 -4.87113 43.9181
CA 10.4712 23.462 71.8065
CA 4.84553 -11.2172 78.1569
CA 21.1705 6.95207 61.9776
CA 14.0638 26.0079 65.0499
CA 24.364 -5.55965 76.6098
CA 25.8245 15.4122 69.4729
CA 32.5164 21.3713 55.4396
CA 13.6797 22.5829 41.1058
CA 13.6251 9.88364 54.9045
CA 8.72313 1.35255 79.9994
CA 12.5304 24.7091 62.3333
CA 0.293265 0.144694 61.6948
CA 36.6214 17.686 49.9402
CA 26.6398 0.554825 91.1501
CA 10.829 -6.5941 36.1023
CA 8.41558 13.1248 89.3149
CA 14.3065 0.823361 72.9386
CA 1.15114 13.3425 64.4098
CA 14.8487 17.9671 55.0523
CA 16.1113 23.9157 12.7423
CA -3.47327 22.4321 58.7811
CA 21.8097 -13.097 61.9291
CA 32.6897 -2.22719 48.0616
CA 8.047 19.8359 66.8754
CA -5.21832 20.5918 60.0254
CA 27.0685 0.900382 49.8252
CA 8.12639 8.82712 84.8037
CA 27.8318 18.8259 46.67
CA 9.5405 -20.4959 75.2563
CA -3.5862 12.1841 75.0464
CA 28.0765 1.21595 33.2892
CA 35.3114 7.19147 57.6001
CA 34.3788 -9.4207 53.3324
CA 5.42433 13.1424 86.9326
CA 13.1114 14.0636 11.2832
CA 12.7517 2.61998 60.9502
CA 8.61553 7.02897 65.6155
CA 29.6648 7.30544 72.5072
CA 11.2298 6.40037 63.5351
CA 22.8211 -4.74738 50.1591
CA 20.0444 -0.0325602 67.6715
CA 16.2238 15.1965 57.4077
CA 14.8593 27.7623 60.8511
CA 18.1205 -3.79077 59.4569
CA 9.3085 10.2233 53.9651
CA 15.1079 -2.44403 38.6977
