489

CA 33.1974 -3.69843 46.5122
CA 8.22076 -9.1119 75.189
CA 22.9252 27.2859 55.3596
CA 23.0832 0.403453 63.4942
CA 34.7059 -7.84795 57.7591
CA 15.7924 -14.7366 45.1631
CA 4.74351 3.06091 58.4945
CA 11.1098 19.3422 52.6722
CA 26.8982 6.54515 76.6457
CA 45.8961 8.85027 55.7386
CA 19.8991 4.32001 62.7164
CA 0.303955 13.9453 72.5406
CA 6.94557 14.0412 81.5774
CA 7.3951 17.6111 51.6728
CA 25.3333 7.84493 68.5198
CA 25.0018 2.52141 53.273
CA -7.71978 -10.5695 60.6632
CA 7.82059 15.8373 67.5596
CA 21.9782 -1.23053 45.3556
CA 21.406 2.79416 84.2777
CA 24.2987 14.0346 63.9434
CA 12.0979 10.8885 57.0118
CA 33.6274 11.5518 80.1763
CA 28.6794 -11.1279 65.1269
CA 11.4491 16.5868 7.71305
CA -3.66218 -11.1057 81.2415
CA 15.9028 14.465 63.514
CA 6.42539 13.8068 71.3569
CA 16.7509 22.281 54.7804
CA -1.43713 -0.0499234 56.0594
CA 14.1717 7.9636 33.0057
CA 14.8597 23.5854 56.2108
CA 15.952 2.70716 36.3421
CA 4.14707 -5.76128 57.3959
CA 27.5013 2.93293 73.0581
CA 9.2657 -13.5062 77.3994
CA 19.4029 23.0569 19.8145
CA 25.5322 -0.131943 72.0047
CA 34.0003 -4.22213 68.419
CA 9.72672 8.24303 84.0071
CA 26.1253 8.78037 55.8423
CA 17.0441 -12.4456 60.2431
CA 11.8704 24.659 53.8089
CA 28.39 8.96261 41.8498
CA 17.596 -12.3414 73.3279
CA 35.079 4.72052 59.8452
CA 28.0566 -3.36992 76.4617
CA 18.6206 23.1961 25.1265
CA 38.6207 -8.93324 62.2032
CA 10.993 17.683 64.9714
CA 34.0264 14.1791 52.4797
CA 10.4419 -3.66423 66.2207
CA 18.7344 14.3069 57.8649
CA 17.9715 21.9116 67.6972
CA -3.61779 6.48684 57.3267
CA 39.1471 -2.37871 56.1584
CA 4.88537 -13.8947 43.5125
CA 15.49 -15.5577 80.0733
CA 33.6329 6.24932 66.9494
CA 12.5424 19.9242 30.3296
CA 4.43074 -9.54007 57.0465
CA 7.95109 19.0774 53.4553
CA 19.1186 -10.8521 61.0801
CA 5.65136 10.5777 78.2594
CA 15.789 -8.30301 47.5892
CA 4.43511 -12.3638 78.7063
CA 36.2397 11.8998 75.6084
CA 12.7273 23.1858 59.0136
CA 23.3334 18.1911 26.1226
CA 10.5209 16.3005 5.35181
CA 22.3312 -6.09818 54.2663
CA 12.9165 10.368 66.7
CA 2.56346 14.2946 84.919
CA 5.07343 19.0078 60.6039
CA 10.8434 -14.8402 78.1472
CA 7.7823 17.4885 91.2713
CA 25.9297 -6.22055 59.7348
CA -1.7967 18.7421 58.882
CA 20.7013 5.46907 45.2227
CA 39.9057 0.417671 52.4403
CA 14.046 8.87644 65.1635
CA 26.3758 21.4204 33.5947
CA 15.3318 21.6774 64.5594
CA 1.09002 -4.3952 38.0375
CA 7.63969 21.2517 54.7435
CA 18.6954 27.5549 65.1289
CA 5.70604 -2.45651 45.6311
CA 8.53007 4.1805 63.8291
CA 13.9527 -6.37743 42.2281
CA 4.98964 14.1227 73.5878
CA 27.2219 -5.97695 79.7591
CA 14.8645 12.6271 42.5329
CA 13.7687 18.8923 16.2898
CA 14.7006 17.502 63.9644
CA 8.62692 28.5016 56.0616
CA 44.222 9.63803 63.447
CA 28.9039 6.14188 45.0358
CA -11.1274 0.76571 46.1972
CA 31.4099 10.0874 74.0159
CA 23.5445 14.126 76.0042
CA 14.325 28.9864 66.8066
CA 15.4396 15.1143 73.0641
CA 6.17127 17.7853 63.6238
CA 14.9492 14.2181 11.2782
CA 20.9007 5.53856 59.3003
CA 10.8973 6.71879 63.1559
CA 8.08678 -5.69114 58.9422
CA 28.1441 6.03079 66.11
CA 0.181642 17.9508 48.1063
CA 7.54724 18.3026 44.5662
CA 17.9302 23.0907 21.1665
CA 21.2765 -8.68312 86.697
CA 25.4627 13.3889 48.9485
CA 38.0105 3.86379 51.5675
CA 25.566 6.64939 57.2166
CA 32.5396 18.4939 79.2481
CA 26.3962 -10.7221 54.7547
CA 47.611 14.0152 68.0153
CA 23.1618 0.4577 49.7674
CA -12.551 -4.81399 50.3938
CA 28.4809 8.55196 44.1575
CA 10.5245 -7.61954 44.4728
CA 23.6643 -6.44179 56.2152
CA 19.7523 0.952506 86.8019
CA 22.0438 9.40314 47.8124
CA 15.1481 23.9991 14.8869
CA 27.79 -1.41036 60.3275
CA 17.4185 22.4522 56.6543
CA 7.00574 -16.7627 58.5635
CA -0.0608802 7.72886 58.5451
CA 17.9253 -4.03354 65.701
CA 4.43521 18.2419 47.6971
CA 5.01331 20.4478 81.2562
CA 13.734 -10.0056 69.2703
CA 0.90688 17.0568 88.4772
CA 19.6746 3.28491 80.8674
CA 13.6863 17.2096 44.4994
CA 15.0745 26.7506 27.6964
CA 16.2047 6.04652 66.3819
CA 15.9392 9.03733 80.6001
CA 10.6114 0.503198 43.4089
CA -7.09946 -7.87094 55.5767
CA 6.62499 15.0625 85.5626
CA 23.3135 -18.9343 65.7072
CA 3.87751 6.56281 61.0159
CA 25.969 19.4145 46.2426
CA 13.2707 12.6166 52.6772
CA 12.1876 -0.375748 62.5607
CA -0.830146 16.8103 58.0708
CA 5.75798 10.8756 52.8654
CA 27.2623 20.0587 43.137
CA 12.3898 -17.1943 46.7318
CA 16.8 14.5179 56.0389
CA 19.9802 25.1448 29.3914
CA 34.1498 -6.59072 60.421
CA 23.1153 3.55829 53.4866
CA 17.8601 -5.21958 67.1123
CA 34.708 3.67835 55.0778
CA 17.3669 -19.6388 63.7921
CA 46.8666 12.6489 57.1263
CA 16.4764 28.828 55.3674
CA 31.5129 10.9823 82.3525
CA 6.43393 -7.5038 36.4442
CA 25.6081 -0.0803392 37.4367
CA 14.6778 30.0361 62.3568
CA 15.4323 28.9021 48.0962
CA 6.76333 -9.86564 37.1438
CA 41.1832 9.80504 68.779
CA 12.7968 -19.0632 46.8756
CA 23.7884 15.4718 66.9164
CA 22.6063 15.051 37.1681
CA 14.6983 -0.607615 84.7555
CA 28.8551 11.3776 73.5666
CA 15.0505 -9.16203 59.4329
CA 27.6475 -3.67758 62.7302
CA 22.049 -17.0262 49.468
CA 8.44685 24.1065 58.1241
CA 30.7569 16.8124 80.391
CA 12.8735 -1.37913 40.4828
CA 22.5043 -9.04629 55.3598
CA 26.5045 1.10825 38.7292
CA 17.0494 11.8126 13.2167
CA 30.9946 7.26654 47.3276
CA -6.26063 -0.605234 61.2336
CA 24.0337 5.55764 78.6963
CA 41.9102 -3.8606 61.6242
CA 16.5493 3.92921 85.0052
CA 17.2101 -10.4995 46.52
CA 35.1529 10.2339 75.9133
CA 11.4883 -13.4646 57.1043
CA 16.7762 21.0101 40.0426
CA 18.4367 19.5301 28.444
CA 18.7379 -15.4571 63.6596
CA 23.8689 16.2335 77.8412
CA -3.73845 19.58 76.2414
CA 22.2741 20.1838 38.0742
CA 37.4756 7.74542 51.5194
CA 14.6244 12.7485 76.0785
CA 20.098 5.37132 41.3983
CA 10.0524 0.775659 63.9831
CA 12.2854 -15.9561 76.6756
CA 5.58874 14.3361 44.9481
CA 39.5147 3.28593 55.8851
CA 17.2002 -9.7903 55.9688
CA 11.5371 5.5434 64.7502
CA 22.3535 -15.6219 68.4081
CA 24.3749 5.73566 80.5839
CA 8.72718 -3.2549 60.6333
CA 21.5969 3.10107 63.1624
CA 29.2391 2.49643 77.5268
CA 7.40792 -2.40718 68.8058
CA 23.0169 19.3393 77.8159
CA 24.1206 -11.516 53.0476
CA 15.102 -12.1477 65.6385
CA 35.1541 5.80836 62.4786
CA 25.5323 22.2543 50.8375
CA 11.281 -9.72012 67.9167
CA 26.7386 16.7756 55.6902
CA 9.00555 15.2919 5.16719
CA 12.709 -17.5566 80.1444
CA 13.5986 -4.22393 62.2798
CA 3.28163 9.67587 90.0993
CA 2.28642 16.0656 59.7006
CA 25.8199 17.81 49.0568
CA 29.5285 16.6623 81.8506
CA 11.8247 11.2846 10.186
CA 21.0358 18.2585 80.1348
CA 12.6899 -1.94466 58.8689
CA 10.7816 14.5944 46.9635
CA 50.3409 10.6285 68.1685
CA 24.2036 9.90165 64.2848
CA 37.7428 -7.06427 53.5624
CA 16.6609 23.2366 46.2009
CA 14.7738 26.4846 43.8062
CA 20.3663 14.6618 78.3079
CA 16.0201 -6.1032 41.7376
CA 23.5776 12.1462 44.3986
CA 6.53982 -8.45271 40.3709
CA 18.1438 23.0374 37.0762
CA 16.6424 -15.6431 77.021
CA 7.95682 4.17503 60.9864
CA 16.8166 7.1669 79.9033
CA -0.868524 -0.600783 39.7253
CA 13.6784 29.6419 52.2695
CA 5.74179 19.6583 63.8622
CA 22.7332 26.1643 46.3534
CA -5.53055 1.33676 45.5053
CA 22.0607 0.471286 83.7212
CA 26.5785 2.36575 87.3289
CA 20.2657 15.7675 25.1386
CA 24.6813 0.392671 61.3549
CA 12.5689 19.0163 12.1994
CA 11.1093 8.84737 82.3821
CA 2.52795 15.2203 87.4615
CA 6.96648 -9.56234 43.3034
CA 32.0962 18.4058 51.6346
CA 27.0279 18.6279 58.2793
CA 14.3871 8.11352 56.2081
CA -2.63489 1.19282 35.3107
CA 26.7624 3.99804 90.7015
CA 27.8133 -14.6561 67.0441
CA 20.6245 1.51839 68.7091
CA -2.52038 -5.57848 66.0765
CA 0.794044 -0.0246206 37.7862
CA 13.8653 13.2648 58.3633
CA 8.77274 6.11759 60.0115
CA 24.3321 5.42904 48.5742
CA 5.50515 17.4303 88.9231
CA 22.9722 -0.543601 85.5496
CA 20.5676 29.908 45.1064
CA 24.6523 -4.38214 87.8108
CA 15.9587 10.6486 52.7934
CA 34.2535 -0.681304 49.2858
CA 8.01171 -1.85527 62.5383
CA 28.5017 -17.6892 61.7275
CA 7.16762 21.9631 56.8657
CA 16.0687 5.80752 83.6555
CA 20.9392 -10.5877 46.2797
CA 27.8516 -8.94391 83.0637
CA 1.13271 9.44477 79.5122
CA 44.2252 -1.23007 58.5885
CA 24.1056 -9.38511 50.1122
CA 20.9479 18.5826 77.8547
CA 39.449 6.49368 58.1309
CA 22.3466 -0.0259454 52.702
CA 14.3641 15.7288 75.8611
CA 4.56156 -10.9383 34.615
CA 34.2549 9.39951 61.2042
CA 40.5187 -5.31943 60.8502
CA 23.8778 22.3484 46.4976
CA 27.0048 9.58698 44.2543
CA 11.2107 10.1537 77.6958
CA 22.5543 6.35961 62.4682
CA 5.31786 14.0878 51.6877
CA 4.92638 -6.89917 39.1089
CA -0.749345 17.546 64.2504
CA -1.72201 15.7657 73.6422
CA 5.26413 13.0857 53.3043
CA 18.1085 -13.1719 50.151
CA 0.478161 -12.121 79.4839
CA 11.0133 0.647163 41.3041
CA 32.3432 0.809015 61.6773
CA 13.8994 7.25868 35.6101
CA 26.6318 1.89398 51.6995
CA 1.7008 12.3685 87.3516
CA 20.3193 0.936484 61.3685
CA 17.8781 2.73177 64.9559
CA 18.6463 -7.07388 73.779
CA 19.7261 19.4024 67.8187
CA 32.4671 23.4993 54.4184
CA 34.3955 17.3742 46.501
CA -5.25031 -6.63895 59.0584
CA 28.5849 22.8183 53.2754
CA 9.22666 -1.79528 38.743
CA -1.09431 -4.90168 64.4918
CA 38.8961 4.65985 65.0004
CA 16.6702 13.7925 54.2451
CA 16.3695 22.1625 69.9264
CA 5.43217 7.32398 69.0814
CA 14.1985 -16.8684 78.469
CA 30.9837 -2.39926 50.1179
CA 11.4669 18.4981 41.4642
CA 36.4859 1.0863 66.8773
CA 15.2288 3.92629 69.3265
CA 12.7645 25.6969 32.9931
CA 25.6219 -8.28937 65.5692
CA 12.6711 27.5785 58.6101
CA 3.59326 1.40326 65.2008
CA 42.4136 -6.01201 60.1111
CA 34.6612 12.0382 60.6272
CA 17.7485 -0.20546 66.6006
CA 25.3613 -0.663178 49.5633
CA 25.6388 4.49501 54.8588
CA 4.37913 12.8001 46.5498
CA 26.9011 -0.382907 55.2286
CA 31.594 20.1115 79.8713
CA 39.1202 -1.54229 52.372
CA 2.32936 -13.3981 81.224
CA 29.468 6.37714 43.0752
CA -1.15245 13.1242 68.0359
CA 39.3244 -1.2469 46.516
CA 39.5009 -4.61499 58.538
CA 34.509 -3.46434 44.959
CA 3.69614 15.5795 63.8241
CA 33.2264 10.8446 61.9383
CA 43.1443 -8.25764 62.535
CA 14.8788 -9.28364 65.332
CA 12.3257 24.4299 29.9725
CA 32.4124 18.1364 44.3658
CA 21.0032 -0.933403 40.358
CA 46.451 10.4033 63.7651
CA 2.75905 17.0916 83.3301
CA 10.8238 2.33962 57.0242
CA 4.23167 -15.8576 46.6333
CA 19.6738 5.47487 84.6301
CA 17.5808 -14.8415 74.0022
CA 24.7819 11.1019 50.0661
CA 43.8774 13.8438 59.019
CA 21.828 2.55964 60.279
CA 16.4722 -11.0783 69.9766
CA -11.1063 -1.21768 46.7446
CA 27.0937 20.1232 79.553
CA 21.2724 18.5147 27.7135
CA 36.4549 2.07595 51.2719
CA 8.73151 22.267 66.2416
CA 14.8133 23.2683 63.8291
CA 18.5695 2.4081 70.7595
CA 26.6659 20.7693 29.1077
CA 29.1002 13.5592 73.3216
CA 30.7828 3.14167 64.2976
CA 15.3567 25.7569 40.4454
CA 0.62252 9.95745 54.3061
CA 16.2764 -8.49363 69.1549
CA 10.9935 23.4507 57.6496
CA 12.8067 0.705462 38.0299
CA 40.5781 10.0747 63.4159
CA 23.7809 12.882 68.1134
CA 10.5227 21.3069 36.569
CA 8.37263 8.12944 11.5283
CA 36.4232 -0.180471 52.3586
CA 11.7187 -9.5267 56.2632
CA 22.5535 15.6125 19.8032
CA 6.29495 16.7894 83.4663
CA 18.411 -7.34207 71.0769
CA 27.5515 15.2458 59.9549
CA 12.8163 24.6161 18.8163
CA 21.6466 7.3939 57.4962
CA 22.7169 -8.42774 49.0607
CA 28.9261 18.0563 82.929
CA -9.39499 -5.28163 57.9041
CA 23.222 7.87883 60.1747
CA 9.5181 27.2769 60.2782
CA 33.4224 12.822 57.2429
CA 13.3418 3.39392 57.8298
CA 19.3411 2.73572 63.5151
CA 6.28811 -1.39939 40.8667
CA 5.16338 -12.8427 57.4806
CA 13.1421 -14.5842 43.7495
CA 22.1765 24.0051 54.1076
CA 31.722 3.79605 42.8269
CA 33.6146 21.6514 47.3116
CA 26.1819 6.91267 45.5191
CA 19.427 17.5402 36.811
CA 24.2377 18.1384 80.7807
CA 42.433 -4.19483 63.4081
CA 23.477 10.744 40.0018
CA 13.0591 -10.507 42.1443
CA 28.7186 12.1683 82.3316
CA 18.3315 9.40151 63.2185
CA 30.9517 22.1987 49.0543
CA 3.39016 -9.2161 38.6991
CA 33.4607 -4.31732 49.0535
CA 14.1188 6.48444 77.4014
CA 21.7166 -2.47119 71.772
CA 27.1814 19.8957 36.6957
CA 45.357 10.3736 59.78
CA 48.2372 15.5881 70.7753
CA 27.6671 5.80852 49.7041
CA 17.4318 17.5507 68.509
CA 18.2295 -1.34002 60.5404
CA 29.9012 1.83447 79.2731
CA 34.5215 9.32719 65.5284
CA 9.51533 -13.6423 75.5759
CA 18.8769 -11.1887 47.1774
CA 6.14083 10.475 70.8356
CA 29.0431 18.1546 56.0685
CA 5.26222 -14.2359 45.6932
CA 23.8569 -1.74128 89.7521
CA 26.9216 8.26863 74.5833
CA 24.4113 9.1441 50.665
CA 16.0517 -15.7239 71.1733
CA -2.82679 1.56379 41.1707
CA 7.60012 11.3369 67.0637
CA 21.5971 -15.3125 57.7592
CA 23.2941 23.6141 44.8263
CA 19.666 17.1803 23.042
CA 17.8597 26.3289 15.4493
CA 2.40905 5.58088 62.6676
CA 7.4622 -14.0441 76.6547
CA 28.2237 -2.29117 71.8044
CA 39.0051 1.4117 58.5575
CA 11.9061 31.5576 65.0541
CA 25.2653 14.8163 44.2819
CA 9.68128 23.8431 31.1988
CA 26.8583 22.3478 77.987
CA 0.64167 -5.77479 40.2119
CA 14.0638 26.0079 65.0499
CA 33.6586 -2.78579 54.943
CA 25.8245 15.4122 69.4729
CA 32.5164 21.3713 55.4396
CA 18.1461 -0.776725 58.6855
CA 0.648315 -1.60847 62.4111
CA 0.751436 16.581 69.8354
CA 12.5304 24.7091 62.3333
CA 14.6372 20.8642 46.1166
CA 38.8898 14.2174 63.0161
CA 16.3216 22.7484 41.8495
CA -2.25956 -2.80659 58.018
CA 7.85395 13.944 12.7806
CA 14.4757 -4.61226 40.5471
CA 19.905 -18.9755 66.9596
CA 21.0332 -11.6726 72.1541
CA 26.9497 6.08692 85.2107
CA 18.3302 18.4117 24.8936
CA 28.5135 -1.03314 83.989
CA 19.4838 -13.9715 60.8797
CA 8.047 19.8359 66.8754
CA 18.9935 25.0192 42.899
CA 25.9425 -14.2574 64.3091
CA 7.44677 18.155 81.8667
CA 17.8235 12.544 11.7306
CA 14.692 15.0682 4.60494
CA 15.8122 29.6433 41.935
CA 7.18903 6.8659 88.8097
CA 35.3114 7.19147 57.6001
CA 12.2617 8.95995 80.5325
CA 48.3332 16.277 66.9514
CA 10.7702 18.993 45.459
CA 22.2108 -9.67961 57.9529
CA 11.9853 -17.8348 68.8321
CA 33.7669 -2.59055 65.9395
CA 29.9774 0.129762 60.4981
CA 22.2924 7.10402 74.1125
CA 36.9576 -2.75993 50.1443
CA 35.7292 18.3826 47.1966
CA 21.4797 31.9915 56.1811
CA 22.0221 -4.83982 57.2543
CA 9.3085 10.2233 53.9651
CA 16.6852 17.1016 75.612
