489

CA 11.3618 25.5775 64.3763
CA 8.22076 -9.1119 75.189
CA 22.9252 27.2859 55.3596
CA 23.0832 0.403453 63.4942
CA 0.169097 -4.9539 36.1795
CA 15.7924 -14.7366 45.1631
CA 4.74351 3.06091 58.4945
CA 7.44071 17.3149 63.4169
CA 25.5136 14.6643 81.8436
CA 27.0518 27.5602 81.8244
CA 19.8991 4.32001 62.7164
CA -1.31634 16.1243 54.5489
CA 2.55322 -12.1029 35.1936
CA 7.3951 17.6111 51.6728
CA 25.3333 7.84493 68.5198
CA 11.301 -16.1884 76.6477
CA 2.87891 17.3131 79.9724
CA 7.82059 15.8373 67.5596
CA 19.3545 8.08418 40.3284
CA -6.22056 -1.9086 40.8922
CA 7.99523 19.3891 81.0126
CA 3.81937 -5.68414 40.0259
CA 8.80219 7.0015 69.3966
CA 14.4468 3.96765 71.4457
CA 20.4507 23.6437 47.7042
CA -3.66218 -11.1057 81.2415
CA 29.5069 -4.88767 63.4453
CA 35.3125 -15.7927 61.7984
CA 16.7509 22.281 54.7804
CA 24.3383 -2.83485 46.399
CA 17.6784 -12.4659 54.8357
CA 4.42501 16.3045 48.6183
CA 15.952 2.70716 36.3421
CA 4.14707 -5.76128 57.3959
CA 35.615 6.15741 49.1569
CA 9.2657 -13.5062 77.3994
CA 19.4029 23.0569 19.8145
CA 24.0926 14.6127 61.7961
CA 34.0003 -4.22213 68.419
CA 9.72672 8.24303 84.0071
CA 7.25034 12.7018 55.0274
CA 17.0441 -12.4456 60.2431
CA 11.8704 24.659 53.8089
CA 23.9443 13.4485 50.7813
CA 24.6585 27.9447 59.1659
CA 1.65069 -7.39676 35.4877
CA 33.1721 10.1939 51.0758
CA 18.6206 23.1961 25.1265
CA 31.2751 3.28808 73.5835
CA 10.993 17.683 64.9714
CA 28.506 3.25234 44.9131
CA 21.4417 4.09296 42.0843
CA 20.5336 8.70702 81.4777
CA 29.9143 -6.21765 68.3344
CA -3.61779 6.48684 57.3267
CA 2.77615 20.064 63.0565
CA 45.8353 7.78213 63.0531
CA 26.644 27.3425 56.1303
CA 28.0608 9.76603 42.2967
CA 10.8259 -5.98585 68.1169
CA 25.4652 10.7731 68.2597
CA 7.95109 19.0774 53.4553
CA 19.1186 -10.8521 61.0801
CA 5.65136 10.5777 78.2594
CA 2.99734 20.8269 83.9106
CA 4.43511 -12.3638 78.7063
CA 36.2397 11.8998 75.6084
CA 25.0751 16.2198 80.2788
CA 29.3431 21.2881 80.5531
CA 9.56999 -6.21299 55.9757
CA 15.3486 25.391 30.3169
CA 24.1218 -3.98486 48.207
CA 49.8842 9.82165 70.079
CA 5.07343 19.0078 60.6039
CA 10.8434 -14.8402 78.1472
CA 19.3039 -5.27508 40.0056
CA 18.5924 13.4265 54.2193
CA -1.7967 18.7421 58.882
CA 20.7013 5.46907 45.2227
CA -1.84642 -12.2394 34.3188
CA 17.3563 21.3847 64.0916
CA 12.8971 19.657 71.6123
CA 13.0441 17.2302 8.78864
CA 14.8123 7.24268 81.6388
CA 7.63969 21.2517 54.7435
CA 18.6954 27.5549 65.1289
CA 5.70604 -2.45651 45.6311
CA 19.606 3.41096 60.8119
CA 13.9527 -6.37743 42.2281
CA 24.8619 9.99666 41.8938
CA 13.3006 25.9751 28.5982
CA 32.8451 -3.6569 53.3972
CA 13.7687 18.8923 16.2898
CA 15.5265 4.3197 62.1605
CA 1.21853 17.5769 84.7208
CA 44.222 9.63803 63.447
CA 0.507003 10.7896 56.8275
CA -11.1274 0.76571 46.1972
CA 31.4099 10.0874 74.0159
CA 16.2875 9.85106 72.718
CA 14.325 28.9864 66.8066
CA 15.4396 15.1143 73.0641
CA 9.57886 23.9356 55.5018
CA 14.9492 14.2181 11.2782
CA 22.3602 16.6362 69.7324
CA 10.8973 6.71879 63.1559
CA 25.5736 7.62571 59.6639
CA 28.1441 6.03079 66.11
CA 12.9413 -20.7773 44.9011
CA 30.1183 -2.04139 79.7448
CA 17.9302 23.0907 21.1665
CA 21.2765 -8.68312 86.697
CA 5.88547 17.1294 69.0924
CA 7.71389 12.8457 66.8473
CA 25.566 6.64939 57.2166
CA 9.50196 -10.2252 34.2894
CA 26.3962 -10.7221 54.7547
CA 17.5082 18.7445 57.4851
CA 23.1618 0.4577 49.7674
CA 22.7328 19.9255 32.7173
CA 23.9512 24.2625 51.0026
CA 10.5245 -7.61954 44.4728
CA 27.6554 -0.0678517 73.8294
CA 25.0124 -4.55746 51.1671
CA 22.0438 9.40314 47.8124
CA 15.1481 23.9991 14.8869
CA -3.70989 -7.10877 60.9322
CA 34.7328 19.333 44.1902
CA 29.4171 -2.54369 48.5795
CA -0.0608802 7.72886 58.5451
CA 39.2946 2.45518 51.0963
CA 20.4506 24.1707 56.9101
CA 5.01331 20.4478 81.2562
CA 13.734 -10.0056 69.2703
CA 27.3428 5.72497 89.2944
CA 19.6746 3.28491 80.8674
CA 13.6863 17.2096 44.4994
CA 15.0745 26.7506 27.6964
CA 16.2047 6.04652 66.3819
CA 15.9392 9.03733 80.6001
CA 10.6114 0.503198 43.4089
CA 28.2389 -3.1372 68.7181
CA 6.62499 15.0625 85.5626
CA 2.1951 -6.01781 64.0094
CA 22.8222 1.05717 67.2746
CA 17.286 12.1768 58.3022
CA 8.50835 -0.110165 39.5784
CA 39.2852 -15.3426 59.5269
CA -0.0712702 17.4429 79.0238
CA 39.1862 13.027 60.0168
CA 27.2623 20.0587 43.137
CA 5.26143 6.44573 63.9047
CA -2.99504 19.0458 60.2795
CA 26.2993 22.2142 44.5652
CA 34.1498 -6.59072 60.421
CA 23.1153 3.55829 53.4866
CA 24.9062 0.196623 39.1676
CA 24.1876 21.3144 56.8952
CA 18.1769 6.60162 52.8908
CA 46.8666 12.6489 57.1263
CA 9.14495 18.1724 63.7567
CA 31.5129 10.9823 82.3525
CA 39.5224 -0.286175 57.3664
CA 18.3368 2.57547 67.8868
CA 23.9109 17.4594 40.5693
CA 16.8194 -15.734 61.3656
CA 21.4798 -16.6531 61.7901
CA 41.1832 9.80504 68.779
CA 12.7968 -19.0632 46.8756
CA 23.7884 15.4718 66.9164
CA 22.6063 15.051 37.1681
CA 25.7503 -3.81637 38.9367
CA 8.19602 9.28364 72.1674
CA 13.4866 -18.5602 67.4588
CA 15.2308 23.4067 44.9487
CA 14.8061 25.85 41.67
CA 11.7523 -1.03359 36.8461
CA 24.204 -6.95002 62.6382
CA 12.8735 -1.37913 40.4828
CA 22.5043 -9.04629 55.3598
CA 0.919816 1.98091 54.9991
CA 17.0494 11.8126 13.2167
CA 36.1274 -4.98508 67.7577
CA -4.54178 18.7929 62.569
CA 17.316 6.99564 65.257
CA 41.9102 -3.8606 61.6242
CA 49.7211 9.70149 57.192
CA 21.6149 13.1885 43.4086
CA 8.23151 24.4725 39.905
CA 46.3205 4.92837 65.4237
CA 16.7762 21.0101 40.0426
CA 33.218 7.14106 82.058
CA 18.7379 -15.4571 63.6596
CA 37.8912 10.0471 60.0841
CA 35.9688 -3.76614 48.3166
CA 22.2741 20.1838 38.0742
CA 36.1918 20.7513 48.7894
CA 19.6307 26.9102 50.7506
CA 20.098 5.37132 41.3983
CA 20.3328 29.6796 55.8916
CA 1.5768 11.5264 72.0616
CA 5.58874 14.3361 44.9481
CA 39.5147 3.28593 55.8851
CA 43.5257 13.0441 56.5433
CA 20.7535 18.7026 37.3155
CA 22.3535 -15.6219 68.4081
CA 12.6943 -13.1872 79.2823
CA 9.91878 10.1419 79.3342
CA 25.994 6.09425 93.9749
CA 29.2391 2.49643 77.5268
CA 0.687187 18.0792 55.5618
CA 13.5629 10.8178 63.5784
CA 24.1206 -11.516 53.0476
CA 20.2641 11.4854 13.8297
CA 35.1541 5.80836 62.4786
CA 25.5323 22.2543 50.8375
CA 27.6085 23.4341 83.3176
CA 7.33747 17.4548 83.7666
CA 27.4394 8.37564 65.386
CA 8.42694 -12.8579 38.5171
CA 18.8332 7.84063 59.5728
CA 21.8934 2.07184 57.9634
CA 2.28642 16.0656 59.7006
CA 26.5369 10.3183 53.4543
CA 29.5285 16.6623 81.8506
CA 18.5895 22.7766 50.7685
CA 34.7783 -5.43409 50.4214
CA 11.812 -8.45812 55.331
CA 10.7816 14.5944 46.9635
CA 22.5224 8.12783 77.5523
CA 24.2036 9.90165 64.2848
CA 26.0788 -4.89639 76.0684
CA 2.55346 12.9773 75.1574
CA 18.0994 20.0145 45.884
CA 7.18405 18.3606 55.5084
CA 16.0201 -6.1032 41.7376
CA 23.5776 12.1462 44.3986
CA 3.07613 -0.881797 62.9592
CA 18.1438 23.0374 37.0762
CA 30.8681 4.93402 88.9617
CA 7.95682 4.17503 60.9864
CA 16.8166 7.1669 79.9033
CA -0.868524 -0.600783 39.7253
CA 20.5878 16.8661 79.3593
CA 30.2494 -0.13889 86.811
CA 0.081431 -2.9511 58.7144
CA -5.53055 1.33676 45.5053
CA 22.0607 0.471286 83.7212
CA 11.8556 28.2475 62.0616
CA 27.5543 0.0614331 57.9357
CA -0.475548 -4.88941 59.9136
CA 12.5689 19.0163 12.1994
CA 33.5859 17.1027 79.628
CA 2.52795 15.2203 87.4615
CA 6.96648 -9.56234 43.3034
CA 32.0962 18.4058 51.6346
CA 10.9384 26.6214 42.7542
CA 37.6145 12.2189 64.4361
CA 15.1204 8.8026 65.0944
CA 27.2806 -2.68362 49.7102
CA 24.4644 5.58373 58.5482
CA 13.9955 -11.8314 74.5178
CA -2.52038 -5.57848 66.0765
CA 16.4348 22.1697 28.2795
CA 13.8653 13.2648 58.3633
CA 8.77274 6.11759 60.0115
CA 13.2923 22.8372 28.1989
CA 36.3311 -0.29128 60.576
CA 22.9722 -0.543601 85.5496
CA 20.5676 29.908 45.1064
CA 24.6523 -4.38214 87.8108
CA 15.9587 10.6486 52.7934
CA 16.342 10.0624 64.1552
CA 8.01171 -1.85527 62.5383
CA 11.0744 10.3091 12.0295
CA 13.2178 29.99 52.8096
CA 12.2836 -9.46362 44.342
CA 20.9392 -10.5877 46.2797
CA 19.4173 28.7323 43.033
CA 33.0393 22.2413 57.1373
CA 44.2252 -1.23007 58.5885
CA 12.2728 15.1319 52.1545
CA 25.3304 2.47273 55.647
CA 14.6043 -12.0788 67.1735
CA 23.3261 -1.16317 71.6672
CA 10.2251 8.64822 65.0829
CA 16.4261 16.7701 11.6028
CA 16.134 15.2405 52.4209
CA 40.5187 -5.31943 60.8502
CA 23.8778 22.3484 46.4976
CA 14.7551 13.0123 14.4082
CA 11.2107 10.1537 77.6958
CA 37.1442 9.57322 53.6091
CA -0.575568 -1.84522 56.569
CA 22.2706 12.3551 67.0757
CA 21.3764 1.73033 80.5641
CA -2.29341 21.5351 56.0597
CA 29.9292 21.4743 82.737
CA 27.2325 -8.80313 57.8231
CA 0.478161 -12.121 79.4839
CA 15.7016 23.7698 33.4066
CA 8.63821 11.9369 83.2373
CA 31.4245 18.2275 80.9508
CA 42.4583 2.6049 57.151
CA 37.3688 5.92285 51.9123
CA 27.5879 -0.425413 77.9517
CA 43.6855 8.70196 66.9968
CA 26.2176 4.94118 71.8156
CA 19.2151 23.3881 54.0741
CA 32.4671 23.4993 54.4184
CA 34.3955 17.3742 46.501
CA -5.25031 -6.63895 59.0584
CA 28.5849 22.8183 53.2754
CA 31.6087 4.74462 63.8832
CA -1.09431 -4.90168 64.4918
CA 25.213 14.9402 68.5139
CA 16.6702 13.7925 54.2451
CA 53.5201 12.1068 64.6818
CA 5.43217 7.32398 69.0814
CA 2.76667 -0.223859 64.7477
CA 29.1816 6.13701 92.2726
CA 24.6475 15.0216 36.1258
CA 36.4859 1.0863 66.8773
CA 33.0409 20.5581 50.8689
CA 16.4202 5.52547 70.4333
CA 25.6219 -8.28937 65.5692
CA 18.1968 25.9994 46.3411
CA 3.59326 1.40326 65.2008
CA 25.7913 -9.32649 56.532
CA 34.6612 12.0382 60.6272
CA 17.7485 -0.20546 66.6006
CA 18.0276 3.76847 65.4437
CA 14.4671 18.3561 76.2386
CA 22.7826 3.87819 73.7987
CA 26.9011 -0.382907 55.2286
CA 24.1754 8.92726 59.9114
CA 39.1202 -1.54229 52.372
CA 34.2931 3.85113 88.1053
CA 29.468 6.37714 43.0752
CA 8.99074 14.9854 81.0833
CA -6.89972 19.9418 55.2729
CA 27.0563 3.76387 85.935
CA 34.509 -3.46434 44.959
CA 2.54894 -10.9495 37.1882
CA 33.2264 10.8446 61.9383
CA 29.5172 5.09036 78.2857
CA 30.4375 13.2237 81.4164
CA 12.3257 24.4299 29.9725
CA 32.4124 18.1364 44.3658
CA 46.0362 9.17903 69.0249
CA 9.82865 -9.80437 43.9314
CA 45.1238 6.81746 66.9555
CA 50.156 11.7171 66.1746
CA 4.23167 -15.8576 46.6333
CA 33.8451 2.86979 61.8109
CA 16.6248 26.762 62.5621
CA 15.4455 -4.94696 38.8782
CA 43.8774 13.8438 59.019
CA 21.828 2.55964 60.279
CA 16.4722 -11.0783 69.9766
CA -11.1063 -1.21768 46.7446
CA 20.7373 8.52117 41.8997
CA 21.2724 18.5147 27.7135
CA 19.7485 -7.23126 56.5538
CA 2.64327 18.9549 81.1559
CA 14.8133 23.2683 63.8291
CA 18.5695 2.4081 70.7595
CA 26.6659 20.7693 29.1077
CA 47.4931 -0.736283 59.3724
CA 30.7828 3.14167 64.2976
CA 16.5169 11.8067 56.2939
CA 6.21837 9.00584 88.8818
CA 37.4991 9.83761 50.5407
CA 26.3993 1.8695 76.1481
CA 47.7544 11.7 64.8763
CA 10.7232 17.0952 69.6304
CA 23.7809 12.882 68.1134
CA 18.2763 -12.7185 61.7078
CA -7.07236 -7.42397 80.7074
CA 36.4232 -0.180471 52.3586
CA -0.903883 16.4126 83.2762
CA 22.304 10.5988 56.5077
CA 30.7313 3.04126 58.784
CA 29.9364 12.5044 54.7948
CA 14.7392 -6.78226 40.2611
CA 12.8163 24.6161 18.8163
CA 33.943 3.75593 66.092
CA 8.5583 10.1465 51.8912
CA 17.7833 4.75063 58.0799
CA 25.377 1.11809 57.6537
CA 8.22558 -15.5639 48.9953
CA 9.5181 27.2769 60.2782
CA 33.4224 12.822 57.2429
CA -0.28 16.6124 52.7443
CA 22.528 0.77338 52.8292
CA 6.28811 -1.39939 40.8667
CA 4.39397 -5.99044 36.6173
CA 13.1421 -14.5842 43.7495
CA 29.6602 -10.4356 52.3256
CA 24.7155 3.38231 89.5222
CA 33.6146 21.6514 47.3116
CA 26.1819 6.91267 45.5191
CA 19.427 17.5402 36.811
CA 24.2377 18.1384 80.7807
CA 21.7866 24.8643 48.1019
CA 23.477 10.744 40.0018
CA 13.0591 -10.507 42.1443
CA 32.6977 12.437 82.8073
CA 26.3259 5.08458 45.0844
CA 5.75925 -5.50593 58.8892
CA 3.39016 -9.2161 38.6991
CA 16.3353 26.5936 31.4626
CA 6.80782 -15.2021 54.1857
CA 21.7166 -2.47119 71.772
CA 19.4376 -16.1904 58.2006
CA 45.357 10.3736 59.78
CA 38.8523 6.07404 54.2369
CA 30.7175 -5.03649 57.5713
CA 13.1798 29.8922 50.5371
CA 33.3198 -5.90246 41.1708
CA 31.8774 22.1255 82.3348
CA 34.5215 9.32719 65.5284
CA 9.51533 -13.6423 75.5759
CA 17.2346 22.5007 61.4482
CA 6.14083 10.475 70.8356
CA 8.13528 16.785 46.0038
CA 22.1846 4.257 83.2147
CA 23.8569 -1.74128 89.7521
CA 26.9216 8.26863 74.5833
CA 31.1627 -7.50552 57.0847
CA 16.0517 -15.7239 71.1733
CA 25.0723 3.68232 72.6835
CA 13.6405 -13.725 56.6024
CA 27.6908 17.9134 61.1194
CA 3.52558 18.097 57.269
CA 17.2152 7.08827 36.8011
CA 17.8597 26.3289 15.4493
CA 2.40905 5.58088 62.6676
CA 7.4622 -14.0441 76.6547
CA 26.661 3.45156 70.9026
CA 39.0051 1.4117 58.5575
CA 11.2828 -15.0264 38.6039
CA 11.9059 19.0258 62.4236
CA 4.20164 -12.5342 44.5964
CA 22.6354 -1.81469 39.7407
CA 38.2129 -10.7673 60.1181
CA 0.624717 -9.00656 39.3857
CA 31.8253 24.0513 57.712
CA 44.5564 -9.85876 62.1478
CA 32.5164 21.3713 55.4396
CA 18.1461 -0.776725 58.6855
CA -1.97301 12.8267 56.7355
CA 32.7835 8.27254 76.2121
CA 9.76893 10.3567 67.1453
CA 14.6372 20.8642 46.1166
CA 44.5046 -5.59082 57.8549
CA 22.7433 -3.56269 74.8665
CA -2.25956 -2.80659 58.018
CA 7.85395 13.944 12.7806
CA 1.11564 -0.439383 55.6986
CA 31.4582 2.84474 77.3096
CA 33.9556 17.1401 51.0218
CA 16.0768 -13.5266 62.1207
CA 39.7232 -9.93621 60.7552
CA 28.5135 -1.03314 83.989
CA 21.8244 20.0884 28.7145
CA 1.69254 -11.6138 39.9237
CA 18.9935 25.0192 42.899
CA 25.9425 -14.2574 64.3091
CA 30.048 23.5904 51.3857
CA 17.8235 12.544 11.7306
CA 16.4415 -10.243 44.1171
CA 15.8122 29.6433 41.935
CA 7.18903 6.8659 88.8097
CA 35.3114 7.19147 57.6001
CA 7.5236 -7.45767 60.4396
CA 22.6888 -5.13053 72.9415
CA 18.2493 8.03747 84.8633
CA 22.2108 -9.67961 57.9529
CA 13.6572 24.6748 15.8301
CA 33.7669 -2.59055 65.9395
CA 7.34171 16.716 79.7157
CA 15.4834 -4.41945 47.2791
CA 36.9576 -2.75993 50.1443
CA 3.40991 7.93381 72.6924
CA 17.6674 7.84654 51.1594
CA 16.2929 -13.3616 67.0441
CA 9.3085 10.2233 53.9651
CA 16.6852 17.1016 75.612
