489

CA 22.1574 9.0759 56.8835
CA 50.3861 14.897 50.8664
CA 32.4993 5.59642 36.1597
CA 28.7526 -4.38684 40.8348
CA 16.3891 25.3807 52.2169
CA 18.8605 0.332173 44.675
CA 38.3124 10.7639 47.6588
CA 36.9597 19.7848 52.6383
CA 33.956 -0.515399 55.4579
CA 23.3496 3.05177 71.8738
CA 29.4842 21.508 56.0922
CA 14.31 11.3089 79.9835
CA 0.159374 19.8915 60.5685
CA -3.52157 20.3034 58.0572
CA 25.3333 7.84493 68.5198
CA 40.492 22.4357 77.4026
CA 9.01912 15.698 51.6022
CA 19.2731 12.1429 60.1972
CA 37.0879 21.7313 42.4654
CA 48.5637 11.6871 58.6763
CA 18.6661 -9.66412 64.7668
CA 3.81937 -5.68414 40.0259
CA 27.2805 18.1706 83.7565
CA 7.76361 21.3212 52.6557
CA -1.07948 2.18416 54.5426
CA 18.3541 -14.7745 75.867
CA 14.3583 -12.3225 63.244
CA 16.6674 13.5286 14.1909
CA 15.6113 17.9816 71.3983
CA 39.1528 18.0904 55.9185
CA 21.9726 1.1525 64.3609
CA 18.5227 24.3675 58.456
CA 33.1751 20.5469 42.6934
CA 17.0678 12.8649 58.5619
CA 35.615 6.15741 49.1569
CA 26.5677 15.9781 79.5749
CA 19.4029 23.0569 19.8145
CA 35.9655 14.7939 80.4246
CA 49.4376 7.57596 50.3159
CA 32.3597 9.96791 63.2128
CA 16.9899 16.5986 71.4098
CA 13.1845 -17.7447 55.5788
CA 11.8704 24.659 53.8089
CA 32.0265 5.941 44.3751
CA 17.9302 27.538 53.3663
CA 30.0694 4.69166 65.1582
CA 15.903 22.0328 13.754
CA 18.6206 23.1961 25.1265
CA 32.8926 -9.21663 47.72
CA 19.3189 6.58181 43.5722
CA 22.0454 14.8794 40.2722
CA 30.897 7.45511 70.2206
CA 22.6439 16.6331 28.8451
CA 27.1424 -1.41923 62.6058
CA 24.52 16.9303 75.7018
CA 20.7023 11.3743 84.537
CA 37.0455 22.3979 80.4386
CA 11.2265 4.14902 57.4203
CA 14.2524 27.9487 34.6644
CA 25.0545 7.40895 64.4225
CA 26.6573 3.29746 77.8741
CA 26.5908 -2.94394 67.209
CA 17.1481 18.065 30.7339
CA 25.7802 20.9844 34.0584
CA 19.5914 5.73756 47.839
CA 36.1267 -8.51928 43.6254
CA 25.9585 9.05689 44.8956
CA 10.2795 -11.2057 75.9763
CA 17.9411 -4.55938 88.0472
CA 5.48592 2.7011 67.6175
CA 30.725 14.0127 69.9454
CA 36.6028 12.3637 84.604
CA 13.8813 14.3777 47.7328
CA 21.798 19.8385 73.7528
CA 29.3619 -3.24137 54.4905
CA 32.0465 -4.72717 51.6166
CA 49.9379 12.732 63.0069
CA 38.8845 16.9281 46.658
CA 40.4492 -15.3327 64.6479
CA 2.86444 6.51635 66.7768
CA 35.9416 -13.2777 61.2848
CA 20.2326 13.9876 79.959
CA 13.0441 17.2302 8.78864
CA 8.22828 27.9554 18.7136
CA 21.816 27.5482 42.0444
CA 30.8703 4.48276 42.6119
CA 33.6635 19.8883 38.6758
CA 27.727 14.4749 46.6024
CA 8.37779 16.1532 47.4202
CA 11.7339 17.5745 67.0998
CA 17.6933 26.0708 50.2577
CA 24.0505 9.05244 60.5817
CA 38.6466 23.4619 83.9593
CA 17.4668 21.0843 35.1344
CA 18.3595 19.8012 27.9682
CA -8.31298 -0.307921 53.7011
CA 19.1228 4.651 77.1114
CA 9.99498 22.9178 74.5933
CA 12.7282 19.3029 29.7459
CA 23.6277 -16.025 63.0781
CA 25.7273 9.19554 71.9483
CA 9.81381 25.0043 15.9265
CA 12.2 3.88205 77.2535
CA 13.608 16.5526 66.7545
CA 2.40605 -3.12216 63.8863
CA 36.1324 -3.96705 39.3078
CA 9.54334 10.2116 79.8866
CA 12.9419 4.63728 48.2205
CA 45.6339 13.9241 63.2981
CA 13.0868 24.6501 72.8796
CA 41.171 -0.0159761 59.5953
CA 34.1011 24.1311 83.8549
CA 32.2917 24.1581 84.4095
CA 16.8551 22.0061 58.6849
CA 13.023 6.07671 55.7155
CA 42.0238 4.46963 57.5611
CA 45.0156 3.99481 55.825
CA 13.6774 -4.2494 41.5366
CA 45.1901 -4.4315 50.812
CA 22.7328 19.9255 32.7173
CA 14.8935 16.3768 47.4037
CA 35.2553 16.6314 43.1478
CA 26.9325 -3.14001 73.0113
CA 14.705 -12.0935 39.4412
CA 44.9113 6.40319 61.3192
CA 24.6989 12.3258 35.7598
CA 28.4051 26.0941 56.8334
CA 34.7328 19.333 44.1902
CA 25.1135 -1.18468 42.1446
CA 29.9529 8.90602 41.7728
CA 18.7959 0.795211 88.7326
CA 6.27256 -0.532837 60.4966
CA 22.0994 4.5145 73.0443
CA -7.99158 21.0475 59.3914
CA 12.2531 26.8276 37.3152
CA 30.6472 24.4497 81.5369
CA 15.2926 23.5327 44.495
CA 33.6306 28.0009 86.3413
CA 42.2372 -9.31092 59.8754
CA 33.1053 1.67645 68.1458
CA 18.7102 24.3006 62.4376
CA 15.894 -3.69673 83.3619
CA 15.8418 5.74035 58.2608
CA 41.0719 1.78801 60.1728
CA 1.67246 2.30372 68.5359
CA 33.0823 4.889 43.1838
CA 11.3762 1.598 43.949
CA 41.8059 23.1294 79.7026
CA 8.85812 26.9364 38.8701
CA 23.3849 18.5514 70.085
CA 28.1376 20.0198 55.3538
CA 3.37874 4.49196 64.0399
CA 33.313 5.05345 49.3433
CA 20.2189 13.932 82.6681
CA 31.1643 22.3097 62.7937
CA 34.0643 7.44965 56.1785
CA 27.282 5.26113 76.6359
CA 30.8062 -5.44823 46.3168
CA 15.0619 20.248 28.5485
CA 18.8909 -2.66405 83.2347
CA 9.14495 18.1724 63.7567
CA 32.6185 13.2756 71.1643
CA 22.601 4.3201 57.782
CA 28.5282 22.6604 74.1581
CA 27.635 -0.368875 76.8655
CA 18.0901 9.43963 13.1889
CA 29.2863 13.317 47.2663
CA 16.6985 14.8364 9.00043
CA 28.0568 2.04092 81.6048
CA 36.824 9.71337 88.8559
CA 26.8623 -2.63894 43.0961
CA 38.8301 14.0465 63.8098
CA 8.19602 9.28364 72.1674
CA 26.8872 13.2442 68.765
CA 31.519 15.5191 59.026
CA 26.5129 25.5408 58.4945
CA 11.7523 -1.03359 36.8461
CA 35.5947 11.8322 79.2719
CA 10.7847 15.1257 64.8678
CA 33.1179 6.46347 50.4966
CA 26.1352 -6.07443 69.1631
CA 17.0494 11.8126 13.2167
CA 23.1767 -7.09034 79.644
CA 42.3443 12.1875 64.2843
CA 11.0609 19.8483 72.8824
CA 9.72512 5.89798 40.434
CA 29.0464 10.6517 65.5783
CA 21.3626 28.173 44.1218
CA 22.5168 -8.54795 74.0676
CA 24.6512 24.6305 39.8809
CA 29.6751 1.28454 79.3742
CA 20.1107 -17.8853 58.6863
CA 51.7538 14.7657 63.8036
CA 17.4038 3.60047 77.8852
CA 36.5788 9.12172 47.0454
CA 22.2741 20.1838 38.0742
CA 14.969 14.0439 13.4396
CA 15.3833 -2.914 42.5135
CA 35.2599 7.93569 42.1905
CA 32.4816 1.16141 49.5747
CA 5.04002 -1.36182 62.4466
CA 15.452 7.18493 81.8614
CA 27.4197 7.67384 47.6639
CA 27.717 22.4762 60.721
CA 21.9097 12.2044 58.9728
CA 25.8602 23.6267 58.3873
CA 21.9008 13.0469 41.8918
CA 30.6537 3.45861 69.4802
CA 11.1008 13.0824 45.8646
CA 27.2835 -9.45792 60.0359
CA 25.0347 -1.93839 68.0496
CA 32.6575 17.5374 41.2159
CA 25.5259 29.2183 42.6054
CA 20.2641 11.4854 13.8297
CA -6.36161 -2.43207 54.0352
CA 17.6762 -3.55367 45.791
CA 31.5856 17.2521 54.0222
CA 38.2986 11.2917 89.2786
CA 41.086 11.686 65.7313
CA 29.4464 15.3517 83.5773
CA 24.9757 4.39338 68.8107
CA 13.1747 23.2308 38.6609
CA 28.648 18.9877 45.8215
CA 31.3258 16.6543 85.2089
CA 37.2307 12.1892 62.5594
CA 22.5944 4.14261 75.8036
CA 34.7819 -3.94778 52.8605
CA 27.3277 -7.61278 79.6042
CA 32.805 9.95295 44.7488
CA 22.5224 8.12783 77.5523
CA 25.5387 19.6559 59.7581
CA 43.1161 19.6904 50.7051
CA 25.7743 19.7895 89.692
CA 13.1496 -0.305166 42.3695
CA 7.18405 18.3606 55.5084
CA -3.78838 -9.7464 56.3321
CA 20.2999 19.7408 37.2927
CA 33.6267 2.1157 47.3333
CA 45.463 5.51471 52.7454
CA 25.5865 19.7334 72.6189
CA 25.6861 10.0285 64.6542
CA 27.8308 1.61855 78.8402
CA 53.9072 14.1441 55.0509
CA 20.5878 16.8661 79.3593
CA 34.4585 -8.0047 42.5682
CA 42.04 13.3794 67.5523
CA 31.2208 15.757 53.0002
CA 5.61801 1.25796 71.987
CA 14.9165 4.27667 52.4048
CA 5.21614 19.7933 62.512
CA 7.95175 12.2597 67.2681
CA 19.8401 -15.755 65.635
CA 20.6598 -9.69428 62.8512
CA 47.7914 14.7131 61.9833
CA 19.8279 4.15999 90.8807
CA 32.0962 18.4058 51.6346
CA 31.2646 12.4355 79.9363
CA 8.08811 11.3044 80.6147
CA 29.1323 15.4805 67.3299
CA 33.5728 4.16445 70.2366
CA 54.864 11.9795 60.7569
CA 17.3902 12.8447 15.8406
CA 35.0464 0.683998 36.0294
CA 53.1411 13.7763 63.0492
CA 18.3633 -0.335801 86.7407
CA 39.7496 -4.26138 46.9798
CA 42.712 20.0198 45.9625
CA 48.5634 18.6052 62.7005
CA 22.9722 -0.543601 85.5496
CA 41.4406 -15.9711 60.9879
CA 5.5963 6.73425 63.4078
CA 48.6257 12.3572 50.3868
CA 23.0594 -0.444662 42.0187
CA 35.996 16.2959 41.0432
CA 23.7836 -2.96943 81.938
CA 34.6957 0.95697 66.6475
CA 19.1418 -10.2671 61.472
CA 12.9398 7.47567 54.4798
CA 14.8484 -7.69496 75.8392
CA 43.6846 18.1846 46.4954
CA 47.1094 2.68777 46.2187
CA 12.2728 15.1319 52.1545
CA 39.0338 2.7011 66.1397
CA 39.1824 -0.47401 54.9704
CA 19.2654 16.5405 84.6423
CA 21.2919 -5.07949 84.8372
CA 16.4261 16.7701 11.6028
CA 34.0525 11.3125 82.1141
CA 13.088 17.2899 11.4825
CA 21.7562 -0.275595 37.8813
CA 19.562 13.4625 88.495
CA 32.2933 12.4408 64.5181
CA 32.9808 4.59505 58.1582
CA 13.9086 8.65603 73.374
CA 13.2312 -0.457709 45.0574
CA 11.0576 12.7542 79.6884
CA 48.8157 9.82274 62.9095
CA 29.9292 21.4743 82.737
CA 47.6471 6.19333 50.9758
CA 12.9926 1.67864 62.5343
CA 17.8782 15.4452 85.4621
CA 28.8217 7.02877 63.9078
CA 31.0063 2.29768 59.3948
CA 28.3707 6.2484 61.5636
CA 22.6436 21.0581 71.6462
CA 13.3256 -15.1382 57.9095
CA 27.8998 5.37006 64.4012
CA 35.5901 12.7641 58.3245
CA 16.3102 4.96153 86.3894
CA -0.0483953 1.8042 64.8742
CA 30.5583 15.1618 79.4153
CA -5.25031 -6.63895 59.0584
CA 31.8341 -1.41742 69.4348
CA 12.1048 26.1656 35.4855
CA 33.0182 -1.41869 60.6901
CA 38.3256 21.65 84.5493
CA 14.1871 15.809 72.7941
CA 23.0135 -7.95822 55.307
CA 41.6037 9.60547 52.3518
CA 18.4633 -18.0272 66.9882
CA 8.18273 14.1585 81.2624
CA 23.9992 -4.20241 73.4028
CA 11.8599 -0.158537 46.5049
CA 43.802 16.7631 57.5109
CA 32.3006 16.2739 47.5337
CA 6.11216 -5.69948 60.9032
CA 18.2748 10.4666 77.1344
CA 39.3179 -7.1795 48.737
CA 19.2642 16.2564 42.0498
CA 10.4023 -12.6995 40.0402
CA 15.8107 28.3835 51.6875
CA 43.3295 1.39035 60.7223
CA 20.3832 0.235123 59.1502
CA 33.4672 22.1689 85.7181
CA 37.76 -14.8828 66.1573
CA 15.9992 19.6048 59.2663
CA 42.7433 5.34346 70.953
CA 44.2213 -2.1612 49.8644
CA 33.9227 22.5477 79.9031
CA 11.3391 23.9858 38.6775
CA 16.7963 -5.02403 38.7072
CA 27.0563 3.76387 85.935
CA 3.78892 -6.28564 65.0421
CA 8.16393 4.90986 63.466
CA 20.0754 10.8439 35.6435
CA 16.7193 24.3022 49.1457
CA 18.2125 -9.90201 75.7574
CA 20.3814 2.24081 50.9199
CA 32.4124 18.1364 44.3658
CA 17.1341 18.8474 33.0151
CA 29.1297 27.9917 48.6646
CA 45.1238 6.81746 66.9555
CA 7.39553 9.73053 40.0206
CA 21.1143 1.866 70.4653
CA -11.57 20.9265 59.0106
CA 7.71964 4.53368 42.2488
CA 10.1563 20.8444 52.0591
CA 17.8369 -11.9794 65.4124
CA 42.7929 6.74548 57.2442
CA 11.7657 -8.50952 76.9595
CA 11.389 12.6091 42.4088
CA 17.412 16.0366 56.564
CA 29.3906 -8.56795 59.9712
CA 3.45487 2.6497 69.3466
CA 18.3765 24.7202 53.7081
CA 29.5685 6.65669 58.2842
CA 16.9231 5.8936 87.908
CA 18.2396 8.81566 63.2756
CA 24.7883 10.0719 38.78
CA 34.5722 8.44016 83.5592
CA 20.7971 1.85836 47.2895
CA 39.3803 -3.66235 51.9534
CA 32.0057 -0.546248 79.6602
CA 22.3531 -10.2488 52.4792
CA 16.0534 5.46457 55.7321
CA 10.7232 17.0952 69.6304
CA 23.7809 12.882 68.1134
CA 22.3874 1.83492 40.8185
CA 19.7408 6.27205 79.9348
CA 41.681 2.09858 70.7631
CA 18.5367 -2.77657 61.5072
CA 21.1796 -1.16154 75.8521
CA 11.0321 12.8083 12.1211
CA 35.9615 21.985 82.6407
CA 11.7522 -12.1561 57.4146
CA 24.6361 19.1902 79.2173
CA 20.4603 4.84662 71.5763
CA 40.3891 -6.51814 62.2352
CA 19.5898 11.697 62.1372
CA 28.0345 -7.92294 57.6006
CA 16.9212 19.7794 11.0322
CA 6.12685 -10.9764 40.08
CA 33.4224 12.822 57.2429
CA 15.7123 17.3427 33.5143
CA 31.013 19.2734 87.9679
CA 9.57492 -14.9038 58.7986
CA 34.9749 4.05142 41.5905
CA 22.33 10.7153 83.6677
CA 47.607 6.51015 62.3294
CA 18.4342 22.7464 51.0552
CA 14.9861 4.12001 68.3106
CA 37.5012 11.1768 56.305
CA 16.7095 24.9901 31.1981
CA 40.4266 -4.22465 44.9479
CA 20.1859 2.30321 34.9811
CA 10.631 9.90714 43.0381
CA 8.78562 11.7917 45.7481
CA 32.6977 12.437 82.8073
CA 29.5243 18.4498 36.5315
CA 11.1661 -12.4177 60.5607
CA 15.5216 -10.1799 39.2959
CA 11.5026 1.65169 47.5789
CA 12.1882 14.4149 70.8297
CA 12.5967 12.6594 51.2496
CA 19.4376 -16.1904 58.2006
CA 20.626 21.8825 61.8466
CA 30.8532 -8.09471 45.0324
CA 34.0797 -17.4588 62.3171
CA 27.8176 11.1395 62.0658
CA 29.5412 -9.14357 78.6382
CA 18.0358 -1.58382 36.0095
CA 13.0741 28.4622 16.196
CA 38.2585 11.9285 66.5136
CA 22.4544 15.378 62.0175
CA 33.6134 -6.94003 37.5444
CA 9.57379 -8.53075 60.3075
CA 22.1846 4.257 83.2147
CA 14.1351 4.55859 49.8548
CA 21.4701 -0.48825 48.7362
CA 13.9506 3.92908 70.2901
CA 39.1446 22.177 45.2525
CA 44.8749 17.4313 53.7989
CA 15.4776 25.1246 42.1953
CA -3.02589 -3.78259 57.4876
CA 28.6376 21.4945 77.2334
CA 2.5043 -1.81984 58.6395
CA 17.8597 26.3289 15.4493
CA 9.35266 13.1478 85.151
CA 6.27952 16.7305 82.2097
CA 10.7479 17.0174 82.9306
CA 41.2387 19.4836 51.9709
CA 5.68316 8.83556 69.8757
CA 24.7086 7.7203 75.2962
CA 32.0545 -3.28315 63.4359
CA 8.7191 -15.8384 43.3591
CA 22.2053 13.4043 44.6173
CA 11.8678 7.05373 61.0348
CA 45.0422 15.5409 55.8347
CA 28.5415 6.11123 48.8419
CA 21.4334 -2.54389 83.869
CA 23.0561 -18.6248 59.8274
CA -1.44057 -2.40298 55.4329
CA 9.78777 13.7019 82.5299
CA 23.0527 -20.1569 64.7702
CA 28.6057 15.2919 43.2495
CA 34.1959 15.585 53.8706
CA 12.114 -17.6086 41.9499
CA 8.62514 6.82193 60.0446
CA 17.2298 24.5699 64.128
CA 25.3795 27.6808 47.0264
CA 20.5171 -0.66581 39.3792
CA 10.043 11.9432 66.5546
CA 24.0453 5.32302 57.1165
CA 21.795 -15.8019 65.3189
CA 33.5702 -18.6135 59.2199
CA 40.6801 -14.0275 60.8924
CA 40.7935 0.770422 62.3047
CA 42.8333 3.23779 54.2729
CA 26.4716 23.6282 56.0932
CA 22.2496 2.86109 46.6411
CA 11.7237 -11.0899 78.8575
CA 14.1762 10.7196 75.8027
CA 15.8122 29.6433 41.935
CA 45.239 7.69986 46.0404
CA 46.3123 0.985995 51.5732
CA 10.837 -15.6845 42.2864
CA 31.8226 -9.90095 61.345
CA 30.4228 0.575174 61.4249
CA 35.0371 -2.74436 55.4338
CA 8.50981 4.26987 39.0214
CA 10.5606 7.95737 48.4632
CA 13.6684 16.8138 31.8293
CA 23.4517 -3.44762 71.3992
CA 51.424 13.373 54.2256
CA 28.025 4.95608 37.5124
CA 17.6674 7.84654 51.1594
CA 4.17752 24.2318 53.0727
CA 13.3148 -12.9205 59.0255
CA 28.0833 -3.66435 69.0528
