489

CA 33.5041 20.1256 34.106
CA 50.3861 14.897 50.8664
CA 19.039 -1.80095 58.5322
CA 28.7526 -4.38684 40.8348
CA 37.8717 7.07947 66.9097
CA 41.3095 7.34411 50.257
CA 38.3124 10.7639 47.6588
CA 36.9597 19.7848 52.6383
CA 33.956 -0.515399 55.4579
CA 23.3496 3.05177 71.8738
CA 29.4842 21.508 56.0922
CA 14.31 11.3089 79.9835
CA 0.159374 19.8915 60.5685
CA -3.52157 20.3034 58.0572
CA 21.1154 22.5766 33.6476
CA 40.492 22.4357 77.4026
CA 35.4693 10.3939 60.6928
CA 47.2627 18.3196 54.1878
CA 21.5358 23.5138 55.846
CA 33.9884 24.529 41.0579
CA 18.6661 -9.66412 64.7668
CA 38.9625 -0.54687 60.3368
CA 15.9058 21.2374 33.5366
CA 7.76361 21.3212 52.6557
CA 31.9236 -0.382515 59.5858
CA 43.762 2.85212 58.8517
CA 14.3583 -12.3225 63.244
CA 17.9642 21.8976 53.755
CA 15.6113 17.9816 71.3983
CA 13.0597 11.8517 83.1714
CA 40.7206 12.1614 54.7428
CA 17.1642 17.6516 12.0483
CA 25.5458 -0.799619 38.8045
CA 23.2172 5.65403 81.1973
CA 35.615 6.15741 49.1569
CA 43.3946 19.8287 50.6145
CA 19.4029 23.0569 19.8145
CA 38.323 -1.92533 57.547
CA 49.4376 7.57596 50.3159
CA 32.3597 9.96791 63.2128
CA 34.396 16.3244 38.3757
CA 31.7456 9.57178 41.8826
CA 11.8704 24.659 53.8089
CA 12.821 17.6947 68.8703
CA 37.4715 9.92586 67.7896
CA 18.3847 -6.66847 38.9794
CA 15.903 22.0328 13.754
CA 18.6206 23.1961 25.1265
CA 32.8926 -9.21663 47.72
CA 28.8835 14.5785 67.5319
CA 14.2461 9.14729 68.4785
CA 41.2399 4.68724 48.1754
CA 22.6439 16.6331 28.8451
CA 23.5669 17.4893 40.3785
CA 24.52 16.9303 75.7018
CA 4.74943 3.69233 38.9102
CA 37.0455 22.3979 80.4386
CA 11.2265 4.14902 57.4203
CA 23.9371 12.2744 56.4846
CA 36.1431 -8.75057 62.1416
CA 19.0853 23.3793 52.0297
CA 8.45537 3.15873 35.8026
CA 49.5003 18.6676 68.4501
CA 31.3119 23.4145 84.448
CA 19.5914 5.73756 47.839
CA 36.1267 -8.51928 43.6254
CA 29.3078 -2.80853 69.1202
CA 22.8086 11.0015 36.9141
CA 20.372 9.12778 14.2291
CA 5.48592 2.7011 67.6175
CA 30.725 14.0127 69.9454
CA 36.6028 12.3637 84.604
CA 13.8813 14.3777 47.7328
CA 19.9253 -4.72605 60.6806
CA 36.173 5.17985 68.9407
CA 42.6071 3.15605 62.2413
CA 49.9379 12.732 63.0069
CA 38.8845 16.9281 46.658
CA 13.3288 -21.6656 55.7045
CA 30.3414 -7.89211 49.3087
CA 35.9416 -13.2777 61.2848
CA 20.2326 13.9876 79.959
CA 13.0441 17.2302 8.78864
CA 8.22828 27.9554 18.7136
CA 12.7714 10.013 52.1487
CA 30.8703 4.48276 42.6119
CA 33.6635 19.8883 38.6758
CA 15.6697 -2.45148 40.6319
CA 16.004 25.0299 39.2872
CA 53.2081 11.2866 51.396
CA 17.6933 26.0708 50.2577
CA 15.8725 -6.73714 38.994
CA 38.6466 23.4619 83.9593
CA 17.4668 21.0843 35.1344
CA 18.3595 19.8012 27.9682
CA 10.0712 -8.0494 59.8409
CA 47.0276 8.49102 46.6427
CA 14.3399 26.9572 49.4092
CA 24.8225 -19.4323 63.5304
CA 23.6277 -16.025 63.0781
CA 24.3791 -17.5751 57.5668
CA 9.81381 25.0043 15.9265
CA 12.2 3.88205 77.2535
CA 13.608 16.5526 66.7545
CA 2.40605 -3.12216 63.8863
CA 36.1324 -3.96705 39.3078
CA 33.6872 16.7256 70.8961
CA 33.4832 22.3412 77.8814
CA 45.6339 13.9241 63.2981
CA 24.9128 24.6578 73.071
CA 42.6925 15.7532 59.5047
CA 23.1497 24.0045 61.9262
CA 22.567 -13.4918 59.9269
CA 26.6596 -3.98624 83.346
CA 30.5386 24.4538 66.6965
CA 42.0238 4.46963 57.5611
CA 29.2384 22.8001 41.4248
CA 22.3869 12.5737 37.7538
CA 20.4289 15.828 7.92102
CA 22.7328 19.9255 32.7173
CA 39.1878 9.20921 66.7627
CA 35.2553 16.6314 43.1478
CA 24.8553 -0.39174 69.0325
CA 14.705 -12.0935 39.4412
CA 12.132 -17.8614 43.7571
CA 21.8371 -14.0196 67.6621
CA 46.6404 5.42483 66.3933
CA 34.7328 19.333 44.1902
CA 22.9325 14.9157 82.3701
CA 29.9529 8.90602 41.7728
CA 18.7959 0.795211 88.7326
CA 6.27256 -0.532837 60.4966
CA 40.583 -7.43558 57.1496
CA 46.1611 15.7919 54.707
CA 12.2531 26.8276 37.3152
CA 30.6472 24.4497 81.5369
CA 15.2926 23.5327 44.495
CA 33.6306 28.0009 86.3413
CA 42.2372 -9.31092 59.8754
CA 33.2665 15.8966 76.8657
CA 36.6258 13.9825 48.9751
CA 26.7559 9.82517 51.0867
CA 14.6222 21.9498 69.8447
CA 41.0719 1.78801 60.1728
CA 22.2726 7.91468 61.9599
CA 31.562 16.6029 39.9554
CA 37.0144 17.3177 41.8453
CA 24.2651 -4.35181 62.0038
CA 8.85812 26.9364 38.8701
CA 27.1785 -4.86096 77.0881
CA 28.1376 20.0198 55.3538
CA 3.37874 4.49196 64.0399
CA 31.7007 -6.17856 47.767
CA 19.9342 16.4653 63.6774
CA 31.1643 22.3097 62.7937
CA 14.6092 -7.16343 57.0022
CA 21.1332 13.3202 14.4093
CA 30.2934 19.5188 57.6735
CA 37.5046 7.53445 51.7108
CA 18.8909 -2.66405 83.2347
CA 9.14495 18.1724 63.7567
CA 19.3525 -5.16944 86.1972
CA 15.4584 16.3828 58.3676
CA 26.9269 -17.9939 59.8856
CA 15.8357 20.5908 9.4692
CA 18.0901 9.43963 13.1889
CA 30.1163 7.54569 39.2075
CA 16.6985 14.8364 9.00043
CA 28.0568 2.04092 81.6048
CA 36.824 9.71337 88.8559
CA 18.5557 3.90022 48.5906
CA 38.8301 14.0465 63.8098
CA 8.19602 9.28364 72.1674
CA 26.8872 13.2442 68.765
CA 49.478 11.1787 48.8516
CA 26.5129 25.5408 58.4945
CA 11.7523 -1.03359 36.8461
CA 34.719 -1.17972 36.4775
CA 21.5564 -4.32436 58.863
CA 23.1911 -0.449103 83.5007
CA 26.1352 -6.07443 69.1631
CA 17.0494 11.8126 13.2167
CA 23.1767 -7.09034 79.644
CA 49.03 17.725 58.2276
CA 11.0609 19.8483 72.8824
CA 14.2031 7.22912 63.3369
CA 40.4236 19.5415 85.696
CA 24.3582 -14.729 61.0519
CA 22.5168 -8.54795 74.0676
CA 24.6512 24.6305 39.8809
CA 29.6751 1.28454 79.3742
CA 21.3626 15.4289 53.1684
CA 8.08442 15.1101 87.8613
CA 43.1542 19.261 59.3014
CA 21.4442 23.2285 30.7401
CA 22.2741 20.1838 38.0742
CA 14.969 14.0439 13.4396
CA 21.6727 17.0368 43.4455
CA 35.2599 7.93569 42.1905
CA 32.4816 1.16141 49.5747
CA 22.8708 5.6435 45.1082
CA 40.8956 14.2976 45.6248
CA 27.4197 7.67384 47.6639
CA 24.9538 5.66201 82.4309
CA 20.2275 18.0242 35.3491
CA 11.9797 21.1078 79.0604
CA 17.5805 12.9488 7.25284
CA 30.6537 3.45861 69.4802
CA 11.1008 13.0824 45.8646
CA 27.2835 -9.45792 60.0359
CA 14.5245 19.1094 79.7305
CA 25.6991 19.5407 57.6358
CA 25.5259 29.2183 42.6054
CA 41.5041 23.4005 80.1593
CA 31.952 23.7176 76.1169
CA 15.6987 6.09473 52.8473
CA 13.9777 18.0553 10.1183
CA 38.2986 11.2917 89.2786
CA 41.086 11.686 65.7313
CA 24.9969 0.789125 75.7776
CA 41.1074 -16.426 60.435
CA 11.0658 -14.2538 55.5274
CA 10.4078 19.1863 74.5837
CA 31.3258 16.6543 85.2089
CA 37.2307 12.1892 62.5594
CA 16.9385 -8.17959 65.0362
CA 34.7819 -3.94778 52.8605
CA 27.3277 -7.61278 79.6042
CA 24.3211 24.8821 37.8857
CA 11.1245 16.4693 82.4462
CA 25.5387 19.6559 59.7581
CA 15.6515 4.6729 81.1055
CA 51.5725 21.1617 64.5731
CA 21.3255 19.5176 82.3921
CA 9.5134 8.87077 66.5029
CA 42.6427 17.1908 53.6787
CA 20.2999 19.7408 37.2927
CA 33.6267 2.1157 47.3333
CA 9.98124 11.8039 41.1622
CA 25.5865 19.7334 72.6189
CA 25.6861 10.0285 64.6542
CA 27.8308 1.61855 78.8402
CA 11.9105 7.20067 43.1949
CA 27.0705 19.0062 52.7466
CA 36.2794 -5.53656 45.9883
CA 30.5302 18.1423 68.1035
CA 33.1738 16.7675 49.9584
CA 9.32572 -16.1492 46.7776
CA 14.9165 4.27667 52.4048
CA 5.21614 19.7933 62.512
CA 40.7601 2.90976 68.9458
CA 19.8401 -15.755 65.635
CA 20.6598 -9.69428 62.8512
CA 31.7276 -0.629242 46.1822
CA 3.43194 21.9856 54.5034
CA 17.244 6.92088 63.8545
CA 34.2177 13.55 78.4124
CA 50.1111 16.7636 62.8378
CA 9.21432 17.3742 82.4536
CA 33.5728 4.16445 70.2366
CA 36.723 16.6049 48.3317
CA 16.3575 28.5295 35.3267
CA 35.0464 0.683998 36.0294
CA 37.0861 21.7112 88.9363
CA 18.3633 -0.335801 86.7407
CA 34.4171 17.4196 72.5891
CA 28.8276 10.4235 68.5816
CA 30.7556 0.323523 75.3441
CA 22.9722 -0.543601 85.5496
CA 38.5188 11.8459 85.8288
CA 27.8684 -1.76893 45.0166
CA 21.2925 13.5285 56.1098
CA 23.9299 4.32608 62.0622
CA 29.8496 17.4902 42.6023
CA 14.7818 -17.3167 58.6262
CA 28.6883 -0.477187 44.0529
CA 16.7702 13.7186 44.3891
CA 12.9398 7.47567 54.4798
CA 14.8484 -7.69496 75.8392
CA 31.8561 -3.47105 58.8881
CA 47.1094 2.68777 46.2187
CA 12.2728 15.1319 52.1545
CA 24.5463 -0.27012 67.2375
CA 14.1024 25.8593 44.9673
CA 19.2654 16.5405 84.6423
CA 21.2919 -5.07949 84.8372
CA 5.53771 18.7781 65.5789
CA 15.3576 15.2097 16.1897
CA 14.4621 18.5834 54.6187
CA 21.7562 -0.275595 37.8813
CA 11.172 -5.19114 62.1202
CA 30.2463 -4.74058 60.3465
CA 32.9808 4.59505 58.1582
CA 9.42885 32.779 18.4439
CA 13.2312 -0.457709 45.0574
CA 31.4044 24.7356 85.8719
CA 48.8157 9.82274 62.9095
CA 29.9292 21.4743 82.737
CA 47.6471 6.19333 50.9758
CA 12.9926 1.67864 62.5343
CA 32.187 8.66842 38.3945
CA 28.8217 7.02877 63.9078
CA 10.3869 11.05 73.9381
CA 28.3707 6.2484 61.5636
CA 15.5538 15.6257 69.9941
CA 25.7224 21.156 61.8796
CA 27.8998 5.37006 64.4012
CA 19.756 4.39798 45.1648
CA 16.3102 4.96153 86.3894
CA 40.1886 18.0186 73.1144
CA 39.6521 14.4599 82.1233
CA 41.13 21.877 79.132
CA 10.5633 9.35065 45.4021
CA 37.2997 2.63587 68.145
CA 33.0182 -1.41869 60.6901
CA 38.3256 21.65 84.5493
CA 35.5779 -8.79145 52.7936
CA 23.0135 -7.95822 55.307
CA 32.7709 10.063 46.1674
CA 16.3646 14.1293 34.2209
CA 33.7035 -7.52469 48.2647
CA 33.8433 18.0281 48.6313
CA 10.926 18.6951 77.9825
CA 43.802 16.7631 57.5109
CA 32.3006 16.2739 47.5337
CA 6.11216 -5.69948 60.9032
CA 21.4043 3.98493 69.1596
CA 43.9632 15.4752 49.6665
CA 19.2642 16.2564 42.0498
CA 10.4023 -12.6995 40.0402
CA 49.758 15.8888 48.7734
CA 21.7715 13.4993 54.1458
CA 20.3832 0.235123 59.1502
CA 17.1495 15.2542 10.7526
CA 23.1978 16.074 80.9602
CA 15.9992 19.6048 59.2663
CA 25.2775 28.7294 38.664
CA 15.9617 18.2389 64.3498
CA 33.9227 22.5477 79.9031
CA 11.3391 23.9858 38.6775
CA 35.8625 27.0304 75.6423
CA 27.0563 3.76387 85.935
CA 32.3156 14.5013 80.3684
CA 8.16393 4.90986 63.466
CA 15.6222 -5.05442 48.5043
CA 15.0485 -19.0567 63.273
CA 18.2125 -9.90201 75.7574
CA 20.3814 2.24081 50.9199
CA 14.5008 5.25706 61.8721
CA 10.457 -10.7801 64.8562
CA 25.3626 27.9402 72.7928
CA 14.296 16.4156 64.7378
CA 21.9714 17.1635 9.41789
CA 12.1997 15.7511 73.0837
CA 21.1655 -13.2075 72.8422
CA 43.2129 14.3192 54.4389
CA 10.1563 20.8444 52.0591
CA 30.8429 2.33296 62.0064
CA 24.8143 17.9415 60.1405
CA 22.7856 -15.9729 68.1263
CA 11.389 12.6091 42.4088
CA 17.412 16.0366 56.564
CA 22.7525 19.4922 81.1062
CA 45.6107 5.40482 50.3809
CA 29.788 11.4337 83.94
CA 26.2629 6.17936 50.6948
CA 20.9105 15.2992 57.0397
CA 16.0048 24.9271 48.5827
CA 34.5698 23.949 83.4855
CA 10.334 -8.85302 65.354
CA 20.7971 1.85836 47.2895
CA 39.3803 -3.66235 51.9534
CA 13.2814 -18.6626 54.4374
CA 22.3531 -10.2488 52.4792
CA 6.15839 6.34317 66.7201
CA 10.7232 17.0952 69.6304
CA 23.7809 12.882 68.1134
CA 15.9852 4.36379 48.7688
CA 19.7408 6.27205 79.9348
CA 41.681 2.09858 70.7631
CA 18.5367 -2.77657 61.5072
CA 21.1796 -1.16154 75.8521
CA 49.4815 13.2273 56.8955
CA 27.1001 -7.64119 73.3974
CA 24.6216 25.2822 58.4706
CA 27.1894 15.6641 70.0577
CA 49.7133 4.75158 65.0727
CA 40.3891 -6.51814 62.2352
CA 19.5898 11.697 62.1372
CA 28.0345 -7.92294 57.6006
CA 15.7678 13.7455 7.76523
CA 22.462 7.9972 45.8511
CA 17.4326 -2.24763 40.1583
CA 41.2557 -1.80486 52.8669
CA 31.013 19.2734 87.9679
CA 9.57492 -14.9038 58.7986
CA 34.1462 -1.40501 53.6843
CA 28.7365 -1.13798 42.2538
CA 47.607 6.51015 62.3294
CA 20.2351 21.483 71.2947
CA 14.9861 4.12001 68.3106
CA 37.5012 11.1768 56.305
CA 39.8638 -4.96979 50.7361
CA 40.4266 -4.22465 44.9479
CA -2.55552 22.2085 54.0562
CA 10.631 9.90714 43.0381
CA 21.5324 21.935 58.2922
CA 25.7269 -3.06571 42.9425
CA 20.4042 -10.3052 72.9202
CA 11.1661 -12.4177 60.5607
CA 19.07 -10.4131 51.6543
CA 3.92514 6.95583 62.8532
CA 50.0172 8.55361 67.7382
CA 50.4269 11.6022 60.2329
CA 13.6897 -11.6389 66.5651
CA 34.019 9.69692 64.339
CA 15.3565 10.143 53.1622
CA 32.6223 -9.89962 41.1079
CA 12.4968 14.1941 42.7023
CA 12.9546 23.8569 48.1404
CA 18.0358 -1.58382 36.0095
CA 13.0741 28.4622 16.196
CA 20.7964 20.7364 53.2963
CA 22.4544 15.378 62.0175
CA 33.6134 -6.94003 37.5444
CA 17.369 20.9076 82.4924
CA 33.1497 8.53624 44.2416
CA 44.1954 7.053 48.1682
CA 30.641 21.5156 39.3942
CA 25.8412 -1.69122 83.8112
CA 26.9471 -0.461117 68.8491
CA 44.8749 17.4313 53.7989
CA 46.366 3.75038 57.5516
CA 50.2535 23.5712 65.8902
CA 52.9468 9.91607 58.3353
CA 2.5043 -1.81984 58.6395
CA 17.8597 26.3289 15.4493
CA 9.35266 13.1478 85.151
CA 6.27952 16.7305 82.2097
CA 13.9619 17.8679 75.0643
CA 16.5626 16.3734 60.891
CA 5.68316 8.83556 69.8757
CA 43.9084 1.51799 66.1536
CA 25.1689 15.9098 77.7151
CA 8.7191 -15.8384 43.3591
CA 22.2053 13.4043 44.6173
CA 11.8678 7.05373 61.0348
CA 20.922 3.04328 85.7068
CA 13.4872 7.71356 66.1115
CA 10.1556 3.05525 45.8901
CA 30.4858 5.2282 38.6029
CA -1.44057 -2.40298 55.4329
CA 9.78777 13.7019 82.5299
CA 39.8175 23.32 74.4796
CA 15.5299 -1.56518e-05 47.8863
CA 35.9036 16.4765 73.7906
CA 22.3793 -9.6225 69.873
CA 37.9113 20.5728 74.083
CA 21.107 21.0496 83.705
CA 46.4577 1.86426 69.6159
CA 20.5171 -0.66581 39.3792
CA 10.043 11.9432 66.5546
CA 32.9768 10.2033 48.1021
CA 47.2476 17.9008 66.1251
CA 40.2199 6.56764 68.9288
CA 40.6801 -14.0275 60.8924
CA 40.7935 0.770422 62.3047
CA 10.2001 27.7735 37.8775
CA 51.3935 10.6915 64.3598
CA 47.4994 0.225952 50.3694
CA 17.3954 17.9948 53.0502
CA 14.1762 10.7196 75.8027
CA 15.8122 29.6433 41.935
CA 31.6864 5.3979 34.6456
CA 46.3123 0.985995 51.5732
CA 7.86346 -0.422188 45.243
CA 31.8226 -9.90095 61.345
CA 17.0041 27.9057 48.3984
CA 35.0371 -2.74436 55.4338
CA 19.7618 10.7081 60.3913
CA 10.5606 7.95737 48.4632
CA 39.2999 -0.00616667 34.4578
CA 23.4517 -3.44762 71.3992
CA 20.7437 -2.27802 38.0949
CA 28.025 4.95608 37.5124
CA 16.3994 13.5008 55.9117
CA 24.5562 -7.05033 54.5863
CA 35.1561 -14.9131 60.9316
CA 33.9603 14.6909 83.2625
