489

CA 21.0352 25.0953 77.5253
CA 0.346325 0.29765 52.1873
CA 19.039 -1.80095 58.5322
CA 36.6856 -0.112011 37.7778
CA 39.088 10.3243 58.521
CA 29.7571 -3.82294 47.9621
CA 38.3124 10.7639 47.6588
CA 11.0549 27.6358 49.8117
CA 33.956 -0.515399 55.4579
CA 23.3496 3.05177 71.8738
CA 14.8274 -8.99258 60.6894
CA 28.6544 21.2652 79.9924
CA 33.7724 21.6506 32.8083
CA -3.52157 20.3034 58.0572
CA 35.2239 15.8532 76.9306
CA 19.4138 1.76159 64.4134
CA 15.7706 9.80401 66.2399
CA 15.8067 20.227 73.5164
CA 10.404 10.4615 67.8563
CA 19.1644 12.0202 41.8952
CA 41.9122 -4.38471 57.7157
CA 38.9795 23.2656 33.9932
CA 15.9058 21.2374 33.5366
CA 7.76361 21.3212 52.6557
CA 12.579 9.50391 54.8919
CA 17.2565 11.7859 59.7357
CA 23.1926 1.69307 50.9073
CA 17.9642 21.8976 53.755
CA 15.6113 17.9816 71.3983
CA 18.9066 16.2376 8.17778
CA 40.7206 12.1614 54.7428
CA 17.1642 17.6516 12.0483
CA 25.5458 -0.799619 38.8045
CA 16.4091 18.9463 14.2876
CA 35.615 6.15741 49.1569
CA 43.3946 19.8287 50.6145
CA 19.4029 23.0569 19.8145
CA 35.0032 18.6885 39.0182
CA 22.0037 24.4311 80.3836
CA 48.4097 9.82684 62.7096
CA 21.0842 8.83674 58.8064
CA 32.5901 27.3245 90.9172
CA 31.1589 16.5511 51.5633
CA 49.1838 -1.9101 49.6446
CA 37.4715 9.92586 67.7896
CA 37.6627 -11.6617 63.0645
CA 15.903 22.0328 13.754
CA 18.6206 23.1961 25.1265
CA 36.9816 25.0948 40.9589
CA 39.1941 13.6751 78.8724
CA 14.2461 9.14729 68.4785
CA 41.2399 4.68724 48.1754
CA 22.6439 16.6331 28.8451
CA 9.01089 7.20202 49.6877
CA 6.09802 12.8087 65.5427
CA 18.4471 27.699 42.8049
CA 37.0455 22.3979 80.4386
CA 13.3589 3.14223 64.6004
CA 23.9371 12.2744 56.4846
CA 31.49 19.9668 85.1063
CA 12.5332 2.38424 39.5541
CA 21.3179 17.5421 84.6982
CA 17.1844 -14.9851 52.733
CA 26.9 -0.63901 66.8989
CA 23.9771 -6.31176 65.1567
CA 36.1267 -8.51928 43.6254
CA 11.9322 8.0927 46.6781
CA 19.0773 21.7741 50.7364
CA 20.372 9.12778 14.2291
CA 29.7053 25.927 79.4634
CA 24.519 24.4069 60.413
CA 40.1851 -12.073 57.1571
CA 13.8813 14.3777 47.7328
CA 19.9253 -4.72605 60.6806
CA 36.173 5.17985 68.9407
CA 23.2824 -2.95174 79.8274
CA 14.6158 7.85659 57.4886
CA 38.8845 16.9281 46.658
CA 10.581 26.0694 38.5987
CA 42.8371 -3.77896 52.8201
CA 35.9416 -13.2777 61.2848
CA 20.2326 13.9876 79.959
CA 13.0441 17.2302 8.78864
CA 8.22828 27.9554 18.7136
CA 12.7714 10.013 52.1487
CA 32.3544 12.9293 64.8635
CA 33.6635 19.8883 38.6758
CA 15.6697 -2.45148 40.6319
CA 38.549 19.5532 81.7517
CA 53.2081 11.2866 51.396
CA 17.6933 26.0708 50.2577
CA 15.8725 -6.73714 38.994
CA 38.6466 23.4619 83.9593
CA 15.9296 -0.346116 83.2053
CA 18.3595 19.8012 27.9682
CA 10.0712 -8.0494 59.8409
CA 28.3689 18.6242 55.387
CA 14.3399 26.9572 49.4092
CA 24.8225 -19.4323 63.5304
CA 23.6277 -16.025 63.0781
CA 54.5908 14.4627 58.6441
CA 11.7079 8.68755 58.7215
CA 47.01 11.6362 49.5568
CA 9.79809 17.9368 50.3376
CA 25.231 14.1964 67.6743
CA 36.1324 -3.96705 39.3078
CA 33.6872 16.7256 70.8961
CA 45.7834 0.625856 53.5457
CA 48.5764 17.781 47.0463
CA 22.3284 9.01952 63.1814
CA 10.2054 11.8106 80.003
CA 23.1497 24.0045 61.9262
CA 26.5548 -5.85789 37.624
CA 13.9657 -7.96225 55.2584
CA 37.3111 26.7126 38.4202
CA 42.0238 4.46963 57.5611
CA 27.8991 20.8605 59.7603
CA 21.8235 -6.54586 51.9457
CA 34.0369 1.96714 55.9827
CA 22.7328 19.9255 32.7173
CA 17.9547 -1.34384 78.6844
CA 35.2553 16.6314 43.1478
CA 24.8553 -0.39174 69.0325
CA 14.705 -12.0935 39.4412
CA 40.0008 5.61995 81.6781
CA 36.4098 14.7487 38.7545
CA 46.6404 5.42483 66.3933
CA 18.4785 8.1839 79.0728
CA 22.9325 14.9157 82.3701
CA 29.9529 8.90602 41.7728
CA 39.9828 12.4748 59.7607
CA 39.3343 4.75127 64.9016
CA 43.319 10.8096 85.0049
CA 14.0188 12.1999 12.5261
CA 33.5309 -0.358027 53.1769
CA 49.0635 15.8981 48.898
CA 7.57686 5.71774 47.5529
CA 15.9593 10.4019 70.02
CA 42.2372 -9.31092 59.8754
CA 22.2952 -7.37849 72.8847
CA 31.2044 0.936251 41.5888
CA 51.808 4.99481 52.9519
CA 30.6467 17.8095 35.0616
CA 41.0719 1.78801 60.1728
CA 22.1897 -12.2044 63.7304
CA 31.562 16.6029 39.9554
CA 37.0144 17.3177 41.8453
CA 38.5621 2.0092 60.9001
CA 40.1524 26.8945 40.8613
CA 27.1785 -4.86096 77.0881
CA 33.2887 -0.114644 38.9088
CA 35.1701 -9.66867 45.21
CA 31.7007 -6.17856 47.767
CA 36.9399 8.85809 56.0903
CA 31.1643 22.3097 62.7937
CA 14.6092 -7.16343 57.0022
CA 27.7704 7.00652 55.452
CA 30.2934 19.5188 57.6735
CA 25.114 -6.12886 67.1749
CA 18.8909 -2.66405 83.2347
CA 9.14495 18.1724 63.7567
CA 19.8882 -1.5697 62.214
CA 15.4584 16.3828 58.3676
CA 26.9269 -17.9939 59.8856
CA 35.8754 21.3083 79.4159
CA 34.3544 3.95609 53.906
CA 30.1163 7.54569 39.2075
CA 35.0763 13.7889 60.4862
CA 43.0309 22.9263 78.9162
CA 31.0416 22.5278 55.428
CA 18.5557 3.90022 48.5906
CA 38.8301 14.0465 63.8098
CA 8.00494 11.1317 85.2895
CA 13.9729 10.79 69.4373
CA 19.7813 5.12764 77.1637
CA 26.5129 25.5408 58.4945
CA 11.7523 -1.03359 36.8461
CA 34.719 -1.17972 36.4775
CA 13.3768 11.2806 41.2198
CA 29.4363 -7.00629 47.0389
CA 26.1352 -6.07443 69.1631
CA 27.0486 -14.64 64.2305
CA 23.1767 -7.09034 79.644
CA 35.4496 16.7783 39.1038
CA 21.8996 10.0709 3.17901
CA 30.6369 12.8938 45.7058
CA 43.7656 1.37286 50.2148
CA 15.4722 19.6519 82.7308
CA 44.925 -2.97681 59.6175
CA 49.6612 10.5063 65.7909
CA 34.2253 15.6422 48.899
CA 37.3521 -6.50359 35.7212
CA 13.993 28.8894 40.5884
CA 38.1333 17.4097 69.3072
CA 44.2076 -7.76871 62.1688
CA 22.2741 20.1838 38.0742
CA 44.7276 -16.6138 62.0873
CA 21.6727 17.0368 43.4455
CA 35.2599 7.93569 42.1905
CA 38.6323 10.9034 82.0823
CA 22.8708 5.6435 45.1082
CA 40.8956 14.2976 45.6248
CA 27.4197 7.67384 47.6639
CA 20.305 -0.861204 54.0914
CA 18.2137 -2.63446 71.4208
CA -3.49985 21.5818 50.6943
CA 34.6563 18.6482 43.3129
CA 38.0578 -11.3686 44.0086
CA 11.1008 13.0824 45.8646
CA 25.6569 10.8428 52.8301
CA 33.7689 15.0086 39.193
CA 13.5209 -0.938006 35.841
CA 51.4563 14.5021 60.9912
CA 11.4847 11.0318 44.8992
CA 31.952 23.7176 76.1169
CA 30.9079 -6.39839 50.95
CA 13.9777 18.0553 10.1183
CA 26.69 -6.37383 45.0329
CA 21.3531 12.1276 64.9667
CA 24.9969 0.789125 75.7776
CA 41.1074 -16.426 60.435
CA 11.0658 -14.2538 55.5274
CA 33.3454 -10.3386 39.0535
CA 31.3258 16.6543 85.2089
CA 37.2307 12.1892 62.5594
CA 16.9385 -8.17959 65.0362
CA 34.7819 -3.94778 52.8605
CA 24.2313 6.87691 46.0962
CA 33.0471 20.4283 43.6039
CA 11.1245 16.4693 82.4462
CA 25.5387 19.6559 59.7581
CA 15.6515 4.6729 81.1055
CA 17.446 -10.3424 59.3564
CA 10.4026 10.2287 84.8362
CA 9.5134 8.87077 66.5029
CA 20.1067 -9.13036 59.3592
CA 13.1204 -15.6284 53.2966
CA 33.6267 2.1157 47.3333
CA 9.98124 11.8039 41.1622
CA 39.5212 25.1776 37.7863
CA 26.3244 17.3409 84.8
CA 27.8308 1.61855 78.8402
CA 11.9105 7.20067 43.1949
CA 20.1798 -12.8748 64.5339
CA 36.2794 -5.53656 45.9883
CA 15.9828 2.021 62.7581
CA 33.1738 16.7675 49.9584
CA 10.4077 13.0767 56.4551
CA 46.9221 0.669806 65.2811
CA 5.21614 19.7933 62.512
CA 18.2849 14.7075 79.0563
CA 7.04449 16.5447 66.5331
CA 20.6598 -9.69428 62.8512
CA 29.3255 5.46853 68.7947
CA 3.43194 21.9856 54.5034
CA 41.5051 13.648 49.2325
CA 34.2177 13.55 78.4124
CA 50.1111 16.7636 62.8378
CA 23.407 -11.0261 48.3707
CA 24.3867 17.2003 38.5647
CA 26.4655 -1.19659 32.1586
CA 41.74 24.6985 80.7238
CA 38.18 2.20196 63.1458
CA 24.9096 -11.1127 62.8002
CA 18.3633 -0.335801 86.7407
CA 34.4171 17.4196 72.5891
CA 28.8276 10.4235 68.5816
CA 30.7556 0.323523 75.3441
CA 18.7402 12.1388 4.67515
CA 38.5188 11.8459 85.8288
CA 27.8684 -1.76893 45.0166
CA 21.2925 13.5285 56.1098
CA 23.9299 4.32608 62.0622
CA 24.3389 -0.47037 62.4978
CA 14.7818 -17.3167 58.6262
CA 13.8176 20.23 34.2722
CA 16.7702 13.7186 44.3891
CA 11.9256 17.1145 65.555
CA 42.5703 8.49081 53.9577
CA 36.5079 14.7557 72.0808
CA 32.9475 0.352774 36.2811
CA 10.4967 -1.39482 41.1345
CA 38.4058 12.3605 57.4744
CA 15.5055 -10.7013 53.1972
CA 19.2654 16.5405 84.6423
CA 17.4562 2.87208 87.1839
CA 40.1612 11.4541 88.2259
CA 15.3576 15.2097 16.1897
CA 14.4621 18.5834 54.6187
CA 13.7455 -8.77548 63.722
CA 11.172 -5.19114 62.1202
CA 37.9902 -12.2731 61.2669
CA 32.9808 4.59505 58.1582
CA 9.42885 32.779 18.4439
CA 39.3171 7.32355 60.0681
CA 31.4044 24.7356 85.8719
CA 20.5414 16.7502 40.6636
CA 29.9292 21.4743 82.737
CA 23.4502 10.9397 64.8971
CA 12.9926 1.67864 62.5343
CA 20.1526 3.11262 90.8441
CA 28.8217 7.02877 63.9078
CA 10.3869 11.05 73.9381
CA 28.3707 6.2484 61.5636
CA 17.0358 25.2169 42.5122
CA 21.6569 20.5465 62.684
CA 16.6336 11.6248 10.7886
CA 25.415 -4.04549 42.6125
CA 16.3102 4.96153 86.3894
CA 40.1886 18.0186 73.1144
CA 39.6521 14.4599 82.1233
CA 41.13 21.877 79.132
CA 10.5633 9.35065 45.4021
CA 10.9994 17.3511 86.2786
CA 33.0182 -1.41869 60.6901
CA 25.4426 -1.6679 34.2787
CA 16.2054 9.59857 49.7144
CA 40.2801 11.628 81.6465
CA 35.0245 21.6474 39.7187
CA 16.3646 14.1293 34.2209
CA 33.7035 -7.52469 48.2647
CA 33.8433 18.0281 48.6313
CA 10.926 18.6951 77.9825
CA 21.9602 1.58131 85.9242
CA 32.3006 16.2739 47.5337
CA 6.11216 -5.69948 60.9032
CA 9.85797 -1.26785 63.5428
CA 35.4694 23.8457 40.217
CA 43.4116 20.7093 57.5852
CA 10.4023 -12.6995 40.0402
CA 48.2032 -0.49884 67.7851
CA 21.7715 13.4993 54.1458
CA 20.3832 0.235123 59.1502
CA 26.5332 17.7981 77.3451
CA 23.1978 16.074 80.9602
CA 14.0779 9.22527 77.6252
CA 51.8562 8.34951 62.7436
CA 28.9519 -8.8177 37.3445
CA 14.9116 7.59755 89.7141
CA 36.5789 -2.24107 58.8342
CA 35.8625 27.0304 75.6423
CA -5.58179 -4.60785 54.006
CA 16.899 16.4492 56.615
CA 23.8974 10.4795 44.6685
CA 15.6222 -5.05442 48.5043
CA 13.6104 12.8527 69.1669
CA 33.896 27.9826 39.4001
CA 13.5368 30.8993 42.2613
CA 7.81299 14.0572 49.902
CA 22.3227 -4.61376 33.4476
CA 16.6506 12.5441 32.6771
CA 16.4216 17.891 37.9174
CA 21.9714 17.1635 9.41789
CA 12.1997 15.7511 73.0837
CA 21.1655 -13.2075 72.8422
CA 28.2201 -5.3807 82.2662
CA 21.2272 12.1304 50.8989
CA 8.53635 13.82 66.2274
CA 24.8143 17.9415 60.1405
CA 22.7373 0.834534 59.1619
CA 19.1626 -6.43683 68.5845
CA 0.593657 -0.20785 55.181
CA 31.6767 18.8853 39.5898
CA 45.6107 5.40482 50.3809
CA 29.788 11.4337 83.94
CA 26.2629 6.17936 50.6948
CA 20.9105 15.2992 57.0397
CA 10.6581 -12.5648 58.1367
CA 34.5698 23.949 83.4855
CA 27.4169 14.5011 36.4324
CA 20.7971 1.85836 47.2895
CA 12.4402 29.7348 41.1825
CA 20.2267 -3.60597 57.0803
CA 22.3531 -10.2488 52.4792
CA 6.15839 6.34317 66.7201
CA 51.3702 13.8546 48.267
CA 23.7809 12.882 68.1134
CA 25.5368 -16.8797 63.5084
CA 19.7408 6.27205 79.9348
CA 47.8613 -3.35724 51.118
CA 29.3376 9.49648 66.9166
CA 28.4017 -3.77897 79.5407
CA 27.4785 21.293 56.3459
CA 39.3665 -10.0114 59.3305
CA 24.6216 25.2822 58.4706
CA 46.7302 18.6059 56.9525
CA 49.7133 4.75158 65.0727
CA 25.2521 9.45556 50.0749
CA 44.0389 9.50445 51.6
CA 28.0345 -7.92294 57.6006
CA 55.7077 7.96236 54.7248
CA 14.2943 13.8689 33.2842
CA 21.5307 -4.66173 64.0358
CA 51.2177 12.7287 46.4059
CA 9.45557 -1.46275 48.1346
CA 12.2537 -7.5405 60.5288
CA 38.3359 21.1928 82.5752
CA 30.5169 6.10559 57.1718
CA 47.607 6.51015 62.3294
CA 45.7987 15.0496 55.5352
CA 26.6873 -6.7936 70.9848
CA 37.5012 11.1768 56.305
CA 39.8638 -4.96979 50.7361
CA 22.9727 15.6894 41.424
CA -2.55552 22.2085 54.0562
CA 15.2032 -2.53883 36.2855
CA 22.9659 -10.5759 66.0151
CA 39.1877 8.20996 69.8182
CA 21.0524 15.032 40.2039
CA 45.6434 20.6445 46.3432
CA 16.0231 22.8272 84.3137
CA 29.6152 16.6954 31.3365
CA 50.0172 8.55361 67.7382
CA 50.4269 11.6022 60.2329
CA 13.6897 -11.6389 66.5651
CA 34.019 9.69692 64.339
CA 15.3565 10.143 53.1622
CA 24.2266 24.0339 79.4719
CA 11.757 12.7442 69.3687
CA 31.4384 5.8723 37.1228
CA 18.0358 -1.58382 36.0095
CA 13.0741 28.4622 16.196
CA 12.3696 14.2513 55.0253
CA 35.5841 -7.49339 47.6211
CA 33.6134 -6.94003 37.5444
CA 20.9674 15.4277 84.2413
CA 33.1497 8.53624 44.2416
CA 31.7134 19.2129 73.4515
CA 27.0985 -9.94117 53.9291
CA 5.95212 28.402 39.6848
CA 26.9471 -0.461117 68.8491
CA 25.52 13.6731 87.5443
CA 46.9496 16.1919 53.2403
CA 16.6655 22.0179 68.5071
CA 52.9468 9.91607 58.3353
CA 2.5043 -1.81984 58.6395
CA 17.8597 26.3289 15.4493
CA 9.35266 13.1478 85.151
CA 6.27952 16.7305 82.2097
CA 52.8124 11.8484 58.6527
CA 28.6552 6.27613 52.0229
CA 16.2579 -0.479778 37.2841
CA 43.9084 1.51799 66.1536
CA 11.0315 13.9112 63.1897
CA 2.0828 20.5558 52.6175
CA 40.9104 4.26045 78.5939
CA 26.1833 1.51804 68.1444
CA 20.922 3.04328 85.7068
CA 14.2337 5.99774 56.9423
CA 12.6629 12.4388 39.8155
CA 30.4858 5.2282 38.6029
CA -1.44057 -2.40298 55.4329
CA 9.78777 13.7019 82.5299
CA 39.8175 23.32 74.4796
CA 15.5299 -1.56518e-05 47.8863
CA 35.9036 16.4765 73.7906
CA 22.3793 -9.6225 69.873
CA 41.4329 31.0142 39.422
CA 11.2726 18.6996 54.4179
CA 13.6365 19.9201 37.0116
CA 20.5505 -2.23878 40.8681
CA 32.7522 -14.7408 60.9358
CA 32.9768 10.2033 48.1021
CA 6.46851 4.22705 48.3209
CA 18.5469 5.86487 57.1368
CA 21.8248 11.2239 57.6787
CA 40.7935 0.770422 62.3047
CA 10.0579 1.78005 50.056
CA 51.3935 10.6915 64.3598
CA 16.0277 5.35865 88.5814
CA 45.0976 16.4285 54.1398
CA 23.9897 8.22495 50.6133
CA 39.7437 0.508745 79.9348
CA 19.9003 -7.03777 71.927
CA 11.6076 -12.5761 68.5973
CA 7.86346 -0.422188 45.243
CA 17.4716 7.1052 70.1461
CA 17.0041 27.9057 48.3984
CA 35.0371 -2.74436 55.4338
CA 30.8115 -6.22394 57.2665
CA 10.5606 7.95737 48.4632
CA 13.2767 -13.2702 68.6892
CA 23.4517 -3.44762 71.3992
CA 24.179 1.3872 42.3766
CA 21.9927 29.2171 59.8087
CA 16.3994 13.5008 55.9117
CA 24.5562 -7.05033 54.5863
CA 9.74628 21.8314 54.7085
CA 33.9603 14.6909 83.2625
