489

CA 31.943 10.1914 66.5096
CA 11.047 -6.84742 55.2504
CA 61.1869 9.43338 56.9726
CA 23.2579 -13.384 65.0978
CA 49.8937 12.3596 57.8313
CA 40.4454 15.8797 42.4709
CA 17.7422 6.9136 42.3622
CA 35.2678 8.79764 40.5524
CA 33.956 -0.515399 55.4579
CA 51.8438 20.0226 46.7505
CA 44.0862 -6.75617 69.4216
CA 28.4818 17.8838 50.0737
CA 24.899 15.2305 82.5824
CA 64.8979 10.03 53.9928
CA 16.7766 -4.15866 62.1731
CA 33.3669 12.7147 61.3259
CA 27.7898 13.8403 67.4933
CA 17.0438 3.13443 66.0167
CA 37.8338 12.5988 40.2476
CA 56.5215 -5.77856 49.1469
CA 60.2685 22.8602 47.964
CA 28.9226 -5.94606 44.6211
CA 53.8592 11.6464 47.0579
CA 24.3428 8.29499 41.1092
CA 29.0472 6.35389 41.4939
CA 19.2764 -13.2515 53.3826
CA 37.5229 2.88753 48.8091
CA 59.5538 11.0752 51.9741
CA 47.5484 12.428 64.3753
CA 18.9066 16.2376 8.17778
CA 7.93394 6.08702 48.0577
CA 9.099 18.0277 67.1
CA 12.7664 4.81263 84.1995
CA 10.3298 18.3905 40.6238
CA 35.615 6.15741 49.1569
CA 28.167 15.8963 59.0171
CA 19.4029 23.0569 19.8145
CA 37.9491 2.51874 63.2607
CA 39.5855 8.90641 83.6173
CA 39.381 8.80937 73.5865
CA 28.7701 16.6149 61.5833
CA 38.7774 -5.28772 67.5167
CA 34.7496 13.8264 45.9691
CA 49.5794 15.8177 52.2174
CA 37.4715 9.92586 67.7896
CA 32.7314 20.9473 35.3782
CA 15.903 22.0328 13.754
CA 25.743 12.0897 56.2828
CA 36.9816 25.0948 40.9589
CA 25.9533 -4.18994 70.9304
CA 38.5847 0.56035 81.3247
CA 48.8787 -5.33998 50.4505
CA 22.6439 16.6331 28.8451
CA 4.87376 21.1677 55.2229
CA 10.4166 -0.26504 59.418
CA 18.0902 -1.98154 69.5821
CA 57.2472 21.3905 47.2288
CA 13.3589 3.14223 64.6004
CA 17.9211 11.1619 35.7427
CA 36.5804 4.30811 70.4658
CA 36.181 8.39833 60.3201
CA 21.3179 17.5421 84.6982
CA 24.6315 -11.4504 57.9937
CA 44.402 20.294 51.5975
CA 30.8872 20.3961 41.4626
CA 53.5442 10.8292 61.6278
CA 22.9008 27.0715 31.2405
CA 37.5523 21.5622 35.2535
CA 20.372 9.12778 14.2291
CA 22.2912 -9.98349 71.0294
CA 53.1981 -6.65282 50.6186
CA 40.1851 -12.073 57.1571
CA 10.0276 10.9495 82.7761
CA 18.4964 11.8358 84.4078
CA 15.2843 18.8366 64.2819
CA 23.2824 -2.95174 79.8274
CA 13.038 18.3304 49.1794
CA 14.0223 15.0727 62.461
CA 12.6112 16.7931 35.5285
CA 42.8371 -3.77896 52.8201
CA 35.9416 -13.2777 61.2848
CA 20.2326 13.9876 79.959
CA 13.2419 -10.6285 62.8417
CA 34.4452 5.10942 55.6818
CA 17.1068 27.4429 44.6415
CA 35.6079 19.8492 43.9397
CA 20.1233 13.6749 62.7949
CA 38.0235 26.236 39.8511
CA 38.549 19.5532 81.7517
CA 42.8709 -8.49816 58.2176
CA 10.0216 5.45306 46.9006
CA 15.8725 -6.73714 38.994
CA 42.9099 7.69485 80.2771
CA 26.8401 -9.11606 58.3687
CA 18.3595 19.8012 27.9682
CA 43.6535 7.73719 82.2607
CA 37.0934 13.4702 83.0748
CA 8.96168 7.51623 84.0767
CA 42.509 -5.67105 46.5981
CA 23.6277 -16.025 63.0781
CA 11.4268 3.09801 56.0414
CA 32.3878 3.55066 41.2397
CA 8.12097 15.4432 5.9703
CA 39.3458 -6.4697 46.3908
CA 45.6327 21.7137 51.8454
CA 55.5652 14.7601 43.2534
CA 33.6502 -10.5579 46.03
CA 49.9135 13.5388 50.554
CA 37.5625 24.4292 36.6163
CA 22.3284 9.01952 63.1814
CA 37.2546 5.85561 50.6251
CA 42.7913 -0.364196 56.7467
CA 22.6693 14.4199 76.0829
CA 13.9657 -7.96225 55.2584
CA 35.0476 28.938 67.1938
CA 58.7659 20.3733 47.4259
CA 10.9412 30.0287 19.646
CA 29.939 10.7129 34.4767
CA 28.467 -3.66162 65.5855
CA 55.6513 17.3514 47.7173
CA 50.9152 -4.80238 52.5816
CA 43.9763 0.0220366 53.7154
CA 27.6445 16.4324 70.2414
CA 31.1273 -1.60949 53.5144
CA 15.1871 2.99992 34.843
CA 22.131 18.3403 60.3668
CA 46.6404 5.42483 66.3933
CA 22.322 -3.51908 78.1043
CA 19.9092 -3.28794 76.3134
CA 25.8165 11.3216 67.921
CA 41.9001 16.7944 44.8434
CA 34.9519 5.99206 41.0496
CA 17.2326 23.6553 46.2069
CA 40.4019 -5.74626 56.4393
CA 27.8131 -9.64864 70.2494
CA 56.0461 -2.18615 45.577
CA 15.9181 -1.45941 51.5724
CA 34.2799 19.0696 49.8886
CA 33.2205 7.51994 66.0307
CA 50.5611 -0.382493 49.0917
CA 31.2044 0.936251 41.5888
CA 40.4985 -7.45094 44.9298
CA 50.1421 -0.881788 51.7683
CA 31.3897 6.2667 62.4994
CA 20.4585 -9.73484 55.4254
CA 31.562 16.6029 39.9554
CA 28.7902 11.8581 32.831
CA 17.0081 31.2649 44.5348
CA 48.1334 5.72365 47.1551
CA 31.4759 -7.2364 60.544
CA 24.6302 -6.61751 31.9285
CA 18.4746 1.91838 33.2275
CA 27.3144 -8.71978 64.2416
CA 30.6073 5.91817 65.3094
CA 17.0297 16.9823 79.9424
CA 38.6498 14.9195 36.7568
CA 19.5582 -14.5855 58.2994
CA 20.2382 -4.27625 50.0123
CA 38.6515 5.26089 83.1989
CA 18.8909 -2.66405 83.2347
CA 9.14495 18.1724 63.7567
CA 19.8882 -1.5697 62.214
CA 24.704 -4.1991 39.2946
CA 26.9269 -17.9939 59.8856
CA 52.1099 -3.41135 47.3571
CA 30.9433 -1.64135 51.1634
CA 55.4812 -0.445208 52.3268
CA 28.9461 -4.01653 51.752
CA 40.8523 -7.3307 57.9315
CA 10.1718 19.6654 71.2827
CA 18.5557 3.90022 48.5906
CA 41.0246 -3.52471 70.0023
CA 32.0103 -10.3422 63.7883
CA 33.7355 -9.83101 48.0538
CA 24.6943 -3.44559 32.5052
CA 53.9122 15.5839 46.1589
CA 55.7923 6.67041 47.5898
CA 34.719 -1.17972 36.4775
CA 58.1936 6.29768 45.6999
CA 40.0798 12.339 65.8473
CA 26.1352 -6.07443 69.1631
CA 40.1693 1.11974 49.16
CA 31.1655 -3.43236 39.9877
CA 52.5076 13.8343 45.4434
CA 23.0716 -3.28845 76.4448
CA 30.9 10.0229 61.5196
CA 43.5903 14.8716 45.7478
CA 15.4722 19.6519 82.7308
CA 14.4511 19.3299 14.557
CA 22.4641 14.3038 41.0981
CA 41.2003 4.0465 52.4342
CA 29.1298 9.73141 53.6249
CA 36.1737 15.2925 39.3021
CA 36.1858 -0.437981 63.6787
CA 33.6621 24.6595 86.5614
CA 22.2741 20.1838 38.0742
CA 22.9986 26.5446 90.6669
CA 28.2721 -11.7478 65.7984
CA 38.3588 21.845 81.3853
CA 27.32 9.07287 52.9887
CA 22.8708 5.6435 45.1082
CA 27.6598 -6.9258 59.1127
CA 50.1778 8.05212 60.3896
CA 14.1808 15.122 70.7201
CA 18.2137 -2.63446 71.4208
CA 61.8073 13.567 65.6443
CA 13.6234 6.01885 7.5425
CA 20.3254 9.93887 48.4928
CA 54.7643 22.5956 49.3247
CA 13.9889 2.39003 58.1913
CA 21.6273 21.8075 35.7737
CA 13.5209 -0.938006 35.841
CA 53.447 -3.31803 49.6416
CA 34.1865 12.3318 65.5904
CA 11.1839 3.21306 49.3491
CA 30.9079 -6.39839 50.95
CA 13.9777 18.0553 10.1183
CA 31.7413 19.7349 72.4446
CA 8.43157 6.1531 50.8331
CA 31.7986 22.0317 37.3186
CA 15.4873 -14.0597 53.702
CA 23.6418 -3.75212 36.6439
CA 25.0087 -11.1427 50.1294
CA 23.9498 -0.593999 78.1763
CA 31.7258 12.1475 67.7761
CA 29.7348 4.50604 40.8664
CA 34.1034 17.3932 51.4827
CA 35.2145 21.4791 49.8288
CA 24.6332 6.76433 62.5734
CA 11.1245 16.4693 82.4462
CA 25.5387 19.6559 59.7581
CA 62.0984 7.20638 52.8953
CA 37.4859 14.4808 65.2135
CA 11.9538 15.5836 69.7661
CA 38.0162 6.04244 44.2476
CA 29.3832 -10.2501 54.0618
CA 23.0936 16.2852 53.1801
CA 18.0612 -5.66255 37.42
CA 24.4175 7.39548 44.0268
CA 36.9323 13.6726 56.7906
CA 11.144 25.5308 51.5433
CA 25.1787 9.54218 39.07
CA 11.9105 7.20067 43.1949
CA 39.0949 12.5802 43.9811
CA 36.2794 -5.53656 45.9883
CA 58.1762 12.3875 63.1141
CA 17.647 14.2406 65.1707
CA 10.6678 5.72111 41.2897
CA 21.9361 -6.19159 68.0757
CA 25.7312 16.2759 75.9237
CA 33.5896 7.02694 62.9806
CA 33.2986 25.1324 67.3508
CA 9.97767 4.04905 84.9393
CA 15.7031 0.698823 34.0393
CA 17.7036 11.2895 58.927
CA 52.3301 6.15052 45.6044
CA 34.2177 13.55 78.4124
CA 31.287 15.4658 59.4034
CA 25.6428 16.7649 61.7526
CA 30.3407 23.7892 35.2236
CA 43.2123 23.372 80.2459
CA 25.2045 25.2688 88.5931
CA 29.1884 -18.6081 59.6558
CA 33.0456 16.4379 74.8211
CA 39.5411 -6.96637 60.6764
CA 49.1036 -5.70406 53.3635
CA 40.1502 19.9631 37.965
CA 13.2662 9.3982 9.96308
CA 18.7402 12.1388 4.67515
CA 40.5219 7.84487 57.8079
CA 44.3287 12.3944 45.6073
CA 21.2925 13.5285 56.1098
CA 51.535 -2.32419 50.7159
CA 20.4451 5.54771 47.8079
CA 11.7559 23.9515 41.687
CA 29.3352 25.2123 59.1226
CA 16.7702 13.7186 44.3891
CA 24.9321 -17.0648 59.1132
CA 14.0768 17.4448 64.1268
CA 36.5079 14.7557 72.0808
CA 31.0638 4.99204 67.4635
CA 12.7277 20.694 49.0929
CA 26.8129 20.0164 86.4825
CA 33.0374 22.5732 57.8645
CA 43.5973 -7.31941 67.5865
CA 37.0939 -6.85985 47.0124
CA 43.1892 11.2492 52.1689
CA 15.3576 15.2097 16.1897
CA 11.7759 21.3509 40.2252
CA 32.1528 -2.91347 64.7219
CA 37.1648 9.78882 80.2645
CA 29.3521 21.9661 88.8946
CA 21.1951 -8.34394 44.4988
CA 9.42885 32.779 18.4439
CA 35.7292 8.64071 87.0766
CA 45.5827 7.62839 81.6895
CA 29.9305 0.0225604 43.2648
CA 36.2315 8.61429 71.9326
CA 23.4502 10.9397 64.8971
CA 44.0033 18.258 45.9091
CA 53.3673 7.75495 52.0013
CA 42.8554 15.2408 56.6987
CA 15.2536 8.77268 57.181
CA 36.9458 12.3854 76.9094
CA 17.0358 25.2169 42.5122
CA 41.874 17.7055 65.2705
CA 16.6336 11.6248 10.7886
CA 25.415 -4.04549 42.6125
CA 16.3102 4.96153 86.3894
CA 6.89019 4.31428 49.9347
CA 39.6521 14.4599 82.1233
CA 4.21265 23.294 55.0399
CA 29.6194 20.4517 52.6454
CA 18.6459 13.5726 28.9988
CA 33.0182 -1.41869 60.6901
CA 24.46 -8.76131 53.6162
CA 29.872 -2.86385 64.6012
CA 18.7108 3.65597 34.4518
CA 35.0245 21.6474 39.7187
CA 16.3646 14.1293 34.2209
CA 46.6078 -5.09719 53.6772
CA 30.0187 14.1112 37.3501
CA 41.0952 21.601 82.4287
CA 11.4297 19.4436 57.9576
CA 32.3006 16.2739 47.5337
CA 6.11216 -5.69948 60.9032
CA 9.85797 -1.26785 63.5428
CA 31.5536 20.1369 69.4848
CA 27.4954 6.60834 62.6265
CA 22.8108 18.0659 35.9423
CA 8.63967 3.18209 49.4219
CA 21.2778 -5.79631 78.0027
CA 33.5477 2.49113 60.0556
CA 18.2644 27.1202 56.8005
CA 33.1553 1.84999 44.6949
CA 20.6425 26.5053 16.0594
CA 20.1156 13.7564 10.0965
CA 10.9773 16.41 53.9654
CA 36.3916 19.137 73.5889
CA 35.7145 0.254052 69.4164
CA 22.5457 4.12284 62.1368
CA 11.4174 -2.52756 55.3566
CA 37.267 17.567 48.0556
CA 31.4199 20.0815 53.4423
CA 38.224 -10.8649 45.3315
CA 10.5381 -6.05477 63.6546
CA 15.2964 22.4723 23.8654
CA 37.7182 4.90999 47.0852
CA 51.0415 16.6009 50.9811
CA 26.3416 13.7127 38.6556
CA 33.3914 -0.122404 62.208
CA 16.4216 17.891 37.9174
CA 35.1245 1.45077 44.6243
CA 20.2744 10.4653 85.3307
CA 38.3536 29.6244 40.8616
CA 40.9645 -2.38753 68.2139
CA 12.0343 21.022 61.0869
CA 27.955 12.9282 50.9549
CA 11.7171 14.8755 80.5417
CA 19.5835 -2.28776 47.1277
CA 26.2187 -1.99277 74.5877
CA 24.824 -5.01176 28.2673
CA 11.4112 16.8084 41.0017
CA 26.3445 -3.69846 39.941
CA 35.024 14.862 49.7462
CA 16.8289 12.8096 87.1869
CA 40.8554 -8.78876 69.3325
CA 25.6194 15.5858 54.6962
CA 35.0299 11.4528 53.0594
CA 16.6028 5.52045 59.5197
CA 19.1397 8.56432 86.5278
CA 20.3693 14.7396 85.2039
CA 31.89 -1.17025 35.6747
CA 32.4624 23.9139 34.0472
CA 16.2645 1.92181 83.407
CA 51.3702 13.8546 48.267
CA 44.4152 19.9723 44.1991
CA 23.1599 -0.907927 33.8132
CA 21.8512 22.9594 58.1176
CA 20.548 -5.77716 43.9967
CA 29.3376 9.49648 66.9166
CA 14.1289 0.664102 62.9833
CA 13.3198 16.3495 52.6262
CA 29.7957 -10.8638 44.3694
CA 23.4549 4.57344 86.1643
CA 38.8704 11.2042 80.2106
CA 8.97393 9.94318 40.4009
CA 25.2521 9.45556 50.0749
CA 23.0254 -14.433 59.2947
CA 35.827 13.3474 73.6985
CA 18.7372 -12.6802 51.2601
CA 23.7781 14.077 50.9347
CA 14.5134 -10.2806 55.8967
CA 12.8287 15.1211 64.5805
CA 39.6594 -6.97271 50.3794
CA 12.2537 -7.5405 60.5288
CA 16.5518 18.6921 81.2911
CA 27.0295 -4.54669 53.3876
CA 42.5054 12.9387 46.102
CA 45.7987 15.0496 55.5352
CA 32.2383 13.0723 57.4369
CA 36.5715 2.28028 59.3095
CA 41.5994 7.73522 60.1312
CA 31.4488 18.0404 75.9276
CA 22.1022 24.7869 34.5308
CA 7.8085 20.36 83.0671
CA 22.9659 -10.5759 66.0151
CA 14.3765 11.5842 3.61202
CA 21.0524 15.032 40.2039
CA 12.9772 -7.08737 53.5412
CA 35.8508 12.4954 75.4015
CA 35.4309 7.7394 65.661
CA 50.0172 8.55361 67.7382
CA 50.4269 11.6022 60.2329
CA 37.8051 3.10609 71.726
CA 63.1937 6.78576 55.0312
CA 36.8366 6.00928 83.5844
CA 15.1645 12.8557 47.5793
CA 6.31509 20.3405 81.8281
CA 57.5633 15.8198 49.5973
CA 56.0041 11.0168 48.4602
CA 13.0741 28.4622 16.196
CA 12.3696 14.2513 55.0253
CA 39.54 10.6393 56.0228
CA 41.2437 15.8891 40.7285
CA 25.4409 9.42039 44.3925
CA 15.3959 4.38961 52.3316
CA 20.7665 11.7618 58.476
CA 25.5483 20.8784 82.162
CA 24.2209 -9.46209 65.1798
CA 24.2789 20.9378 84.9348
CA 9.63032 13.6332 50.2234
CA 52.7192 6.49572 50.2883
CA 40.8911 -5.29329 72.0541
CA 40.6672 9.98559 64.3822
CA 2.5043 -1.81984 58.6395
CA 17.8597 26.3289 15.4493
CA 10.9909 16.5122 49.065
CA 50.0032 16.9584 53.7659
CA 25.8375 -2.87505 47.9393
CA 28.6552 6.27613 52.0229
CA 44.3099 2.13028 68.579
CA 41.5274 -6.8894 68.5999
CA 25.3644 -1.60707 46.7416
CA 9.01595 17.8028 59.0929
CA 14.2689 9.56942 33.7441
CA 26.1833 1.51804 68.1444
CA 39.4282 18.4097 77.006
CA 10.7342 -10.3637 62.4217
CA 9.27196 13.5574 9.83933
CA 41.5121 -9.74902 59.124
CA -1.44057 -2.40298 55.4329
CA 38.1482 3.23786 67.8505
CA 39.2997 17.8341 79.886
CA 15.5299 -1.56518e-05 47.8863
CA 12.0989 17.6115 83.9582
CA 26.5514 -4.04087 59.6368
CA 18.7778 4.77346 83.9577
CA 7.95791 8.19836 43.2103
CA 13.533 -1.8736 62.2247
CA 61.2334 15.7999 66.2675
CA 18.6296 -9.80593 55.8105
CA 32.9768 10.2033 48.1021
CA 42.13 13.5823 48.5274
CA 18.5469 5.86487 57.1368
CA 52.7245 17.1752 46.4353
CA 28.0194 -0.915837 69.4152
CA 21.969 6.16171 60.9496
CA 24.8801 -6.09974 35.4412
CA 29.7036 -7.36686 64.3876
CA 45.0976 16.4285 54.1398
CA 13.6382 18.3023 32.6853
CA 17.5086 21.1209 78.0478
CA 26.9854 4.70381 72.0261
CA 10.7757 14.9332 34.0348
CA 30.0073 9.50094 58.4044
CA 22.2614 -3.42165 35.0262
CA 28.5338 11.9102 62.6187
CA 14.1233 2.90476 37.1512
CA 14.9282 -1.85387 37.5667
CA 20.5944 2.01475 81.8618
CA 16.91 4.80964 47.4644
CA 23.4517 -3.44762 71.3992
CA 10.4104 13.4005 44.1644
CA 21.4159 -10.658 49.4486
CA 57.5091 9.36232 52.7874
CA 7.97455 6.45202 42.1043
CA 9.74628 21.8314 54.7085
CA 33.9603 14.6909 83.2625
