489

CA 57.9304 10.5704 63.4233
CA 11.047 -6.84742 55.2504
CA 61.1869 9.43338 56.9726
CA 23.2579 -13.384 65.0978
CA 49.8937 12.3596 57.8313
CA 46.8255 16.7924 55.9162
CA 17.7422 6.9136 42.3622
CA 44.9075 8.78223 65.2419
CA 33.956 -0.515399 55.4579
CA 25.9616 -17.6765 57.4033
CA 28.1808 -5.99148 61.0793
CA 33.4695 15.8551 61.2344
CA 24.899 15.2305 82.5824
CA 26.2396 7.90277 87.7703
CA 16.7766 -4.15866 62.1731
CA 35.2144 10.0322 56.8899
CA 33.0935 16.3143 63.6137
CA 18.8852 22.4596 52.9221
CA 37.8338 12.5988 40.2476
CA 47.6086 12.3321 52.5364
CA 10.1604 25.9618 39.8326
CA 16.8228 13.6036 66.6974
CA 53.8592 11.6464 47.0579
CA 24.3428 8.29499 41.1092
CA 29.0472 6.35389 41.4939
CA 37.3097 -6.73871 63.9669
CA 47.2563 -10.2485 66.0647
CA 20.0745 18.25 78.6376
CA 45.7028 10.7875 67.1823
CA 18.9066 16.2376 8.17778
CA 35.876 -13.5417 49.293
CA 37.4687 14.381 79.3661
CA 12.7664 4.81263 84.1995
CA 8.1425 8.14578 42.4605
CA 35.615 6.15741 49.1569
CA 21.3576 16.316 63.1737
CA 19.4029 23.0569 19.8145
CA 33.6272 25.3017 33.8086
CA 42.9985 12.8539 41.2123
CA 39.381 8.80937 73.5865
CA 28.4152 21.532 44.5264
CA 38.7774 -5.28772 67.5167
CA 10.0247 8.21364 46.885
CA 47.218 0.776284 66.2267
CA 37.4715 9.92586 67.7896
CA 13.0501 9.82307 35.9513
CA 15.903 22.0328 13.754
CA 51.3706 -3.44358 47.4725
CA 47.9996 17.2652 54.0424
CA 22.4903 -5.89291 39.799
CA 38.5847 0.56035 81.3247
CA 36.9563 13.0105 36.9847
CA 22.6439 16.6331 28.8451
CA 39.0749 2.68984 69.444
CA 54.6067 -9.13094 40.38
CA 0.146363 2.93792 58.6511
CA 10.0525 8.82752 42.0432
CA 54.0865 -9.22938 50.7918
CA 17.9211 11.1619 35.7427
CA 39.4289 -3.30895 76.2471
CA 25.0988 -5.74975 54.5418
CA 25.4311 5.10654 60.7409
CA 20.4024 -0.22178 35.6196
CA 19.8272 3.63132 50.2822
CA 34.7508 3.36175 65.9711
CA 41.5135 11.1505 45.7435
CA 35.8729 17.2052 39.5805
CA 37.6954 15.6407 48.3407
CA 40.8111 12.3993 40.744
CA 32.7256 5.14363 62.6362
CA 35.0327 21.9227 81.7673
CA 53.4623 -6.54588 39.3376
CA 37.1648 -9.58638 62.3414
CA 35.7241 1.16887 67.9123
CA 13.8537 -3.83353 53.2544
CA 23.2824 -2.95174 79.8274
CA 24.3168 17.7262 66.946
CA 25.8928 20.0852 66.9216
CA 30.052 19.7268 58.023
CA 42.8371 -3.77896 52.8201
CA 35.9416 -13.2777 61.2848
CA 55.551 4.07899 43.8751
CA 13.8709 16.0331 47.011
CA 25.6379 13.6837 53.8972
CA 17.1068 27.4429 44.6415
CA 35.6079 19.8492 43.9397
CA 20.1233 13.6749 62.7949
CA 38.0235 26.236 39.8511
CA 38.549 19.5532 81.7517
CA 42.8709 -8.49816 58.2176
CA 36.1463 19.0312 72.8105
CA 25.3361 -8.17953 57.3715
CA 28.1957 16.1729 77.051
CA 26.8401 -9.11606 58.3687
CA 18.3595 19.8012 27.9682
CA 43.6535 7.73719 82.2607
CA 26.6889 3.11625 58.8637
CA 14.4368 9.12511 31.5015
CA 42.509 -5.67105 46.5981
CA 23.6277 -16.025 63.0781
CA 8.29556 -1.98168 54.3775
CA 10.1972 -7.31668 57.05
CA 22.1751 11.289 66.5484
CA 39.3458 -6.4697 46.3908
CA 55.9499 7.01394 47.7147
CA 55.5652 14.7601 43.2534
CA 32.0084 -7.47328 65.7648
CA 49.9135 13.5388 50.554
CA 53.8326 2.11896 45.1512
CA 25.391 -12.0308 68.083
CA 7.99471 2.97365 51.9322
CA 33.2725 12.276 48.3276
CA 39.432 7.04628 82.9467
CA 14.9228 6.21197 81.4648
CA 55.0927 -4.81454 52.5442
CA 54.3526 -7.05167 45.6863
CA 10.9412 30.0287 19.646
CA 19.024 -19.4622 53.0878
CA 28.467 -3.66162 65.5855
CA 55.6513 17.3514 47.7173
CA 50.9152 -4.80238 52.5816
CA 33.2984 9.16422 70.3406
CA 27.6445 16.4324 70.2414
CA 31.1273 -1.60949 53.5144
CA 15.1871 2.99992 34.843
CA 21.4679 -6.19118 37.7154
CA 37.9256 17.0787 80.9057
CA 22.322 -3.51908 78.1043
CA 41.0247 13.9531 37.0505
CA 25.8165 11.3216 67.921
CA 41.9001 16.7944 44.8434
CA 16.804 13.5608 81.7906
CA 17.2326 23.6553 46.2069
CA 40.4019 -5.74626 56.4393
CA 30.5325 4.52567 50.176
CA 31.6144 9.62815 67.629
CA 46.4834 4.18392 69.2789
CA 34.2799 19.0696 49.8886
CA 35.0753 1.4243 54.3729
CA 35.8285 14.2354 77.5364
CA 31.2044 0.936251 41.5888
CA 41.6999 23.4312 82.9888
CA 55.6634 11.3185 48.0814
CA 48.8979 5.60264 51.0693
CA 25.2402 -10.366 56.1176
CA 42.0904 -3.7604 47.7817
CA 47.2184 -2.1841 52.7623
CA 16.4423 -4.16705 55.5878
CA 32.5518 8.18771 65.4293
CA 24.8167 -5.01083 76.2058
CA 24.6302 -6.61751 31.9285
CA 18.4746 1.91838 33.2275
CA 27.3144 -8.71978 64.2416
CA 30.6073 5.91817 65.3094
CA 17.0297 16.9823 79.9424
CA 17.001 0.746748 62.156
CA 15.6981 23.3561 49.9735
CA 40.8001 3.75171 81.1822
CA 38.6515 5.26089 83.1989
CA 68.0366 13.0518 51.9275
CA 29.4166 -16.7748 59.2046
CA 19.8882 -1.5697 62.214
CA 40.7428 6.99298 49.7211
CA 28.5991 -12.2768 54.7887
CA 37.0783 19.9983 34.6706
CA 30.9433 -1.64135 51.1634
CA 24.455 11.359 41.3069
CA 33.0114 -3.9637 51.8999
CA 37.6979 9.94234 61.4299
CA 25.0761 2.28205 86.606
CA 18.5557 3.90022 48.5906
CA 18.8253 5.733 38.5567
CA 33.7608 11.0352 73.6638
CA 28.6948 -1.21955 42.2307
CA 64.8556 4.99263 56.7266
CA 53.9122 15.5839 46.1589
CA 43.8097 9.58991 62.9354
CA 48.5788 19.474 52.2255
CA 34.0439 14.1057 62.1118
CA 40.0798 12.339 65.8473
CA 11.016 18.1361 55.9263
CA 24.7051 19.8224 33.3245
CA 16.3121 17.4226 30.5935
CA 17.1748 -8.13593 58.2888
CA 23.0716 -3.28845 76.4448
CA 19.2598 14.948 59.4575
CA 15.0356 18.8008 68.7796
CA 15.4722 19.6519 82.7308
CA 14.4511 19.3299 14.557
CA 18.9613 4.64855 57.646
CA 41.2003 4.0465 52.4342
CA 33.6407 6.47826 45.598
CA 23.2455 -17.4113 60.099
CA 36.1858 -0.437981 63.6787
CA 21.5647 7.56044 43.1283
CA 22.2741 20.1838 38.0742
CA 16.0291 6.33524 54.1689
CA 28.2721 -11.7478 65.7984
CA 20.8611 25.9997 53.0154
CA 6.75515 13.356 41.0349
CA 21.9689 16.5678 57.921
CA 48.0413 19.2816 55.2304
CA 42.2975 -7.97953 60.6931
CA 31.1811 -11.5939 48.7882
CA 43.7748 19.9709 80.944
CA 42.2109 -4.776 62.3395
CA 13.6234 6.01885 7.5425
CA 29.2857 -0.236231 66.2639
CA 17.279 -4.7804 50.5596
CA 46.3917 -8.79329 63.308
CA 14.3332 12.2198 10.2282
CA 18.3777 -4.89765 61.8067
CA 53.447 -3.31803 49.6416
CA 19.2286 -12.072 65.6268
CA 11.1839 3.21306 49.3491
CA 19.7693 20.9269 58.8237
CA 13.9777 18.0553 10.1183
CA 12.7627 27.3318 47.3051
CA 8.43157 6.1531 50.8331
CA 31.7986 22.0317 37.3186
CA 28.4301 -13.9246 55.5398
CA 48.2667 12.5673 59.6468
CA 17.0853 16.7644 47.4423
CA 16.3022 24.4734 54.4485
CA 18.7925 -14.384 56.651
CA 21.1179 -0.822244 80.0592
CA 45.5504 18.0013 53.1008
CA 35.2145 21.4791 49.8288
CA 38.4822 16.1131 58.8016
CA 43.3698 2.5159 81.305
CA 25.5387 19.6559 59.7581
CA 18.6228 6.63057 44.3806
CA 25.6275 21.3793 65.5222
CA 11.9538 15.5836 69.7661
CA 9.9366 14.3134 45.808
CA 27.8195 16.9524 80.0573
CA 8.27287 20.423 59.5003
CA 18.0612 -5.66255 37.42
CA 31.2116 4.76217 57.5425
CA 13.4069 16.2514 49.8683
CA 11.144 25.5308 51.5433
CA 32.0706 16.819 41.7023
CA 31.8202 -4.95941 56.2122
CA 22.2198 23.6254 45.8114
CA 36.2794 -5.53656 45.9883
CA 58.1762 12.3875 63.1141
CA 22.4961 9.55547 67.427
CA 16.1414 13.035 88.8726
CA 45.6327 -4.45343 75.9552
CA 42.5512 -1.72567 70.461
CA 13.3625 24.9353 46.1491
CA 27.0948 -3.79523 36.8191
CA 15.5776 24.6016 41.3754
CA 32.9114 -11.5632 44.5353
CA 17.5995 7.29679 36.1487
CA 52.3301 6.15052 45.6044
CA 6.09635 -2.42539 60.4518
CA 31.287 15.4658 59.4034
CA 39.3712 -4.28899 70.3094
CA 30.3407 23.7892 35.2236
CA 43.2123 23.372 80.2459
CA 40.2192 -8.15155 66.4287
CA 29.1884 -18.6081 59.6558
CA 33.0456 16.4379 74.8211
CA 17.7369 21.6073 50.6528
CA 20.4466 12.4959 54.5023
CA 46.345 -14.3003 55.9835
CA 13.2662 9.3982 9.96308
CA 18.7402 12.1388 4.67515
CA 36.7455 23.7319 46.531
CA 44.3287 12.3944 45.6073
CA 68.38 10.7215 51.7516
CA 51.535 -2.32419 50.7159
CA 27.3119 -4.80255 55.2225
CA 11.7559 23.9515 41.687
CA 41.9372 -5.61728 74.1556
CA 35.1324 13.3351 58.2417
CA 24.9321 -17.0648 59.1132
CA 14.0768 17.4448 64.1268
CA 19.9709 26.9474 51.338
CA 43.7169 -9.51046 51.9753
CA 55.8606 -3.44363 47.1207
CA 26.8129 20.0164 86.4825
CA 26.3308 7.18323 44.5771
CA 33.8592 9.21435 62.4657
CA 37.0939 -6.85985 47.0124
CA 43.1892 11.2492 52.1689
CA 15.3576 15.2097 16.1897
CA 11.7759 21.3509 40.2252
CA 36.2128 20.1489 71.3172
CA 37.1648 9.78882 80.2645
CA 29.3521 21.9661 88.8946
CA 21.1951 -8.34394 44.4988
CA 9.42885 32.779 18.4439
CA 41.7131 1.99091 59.2064
CA 16.1672 14.3637 43.676
CA 33.2975 11.1617 54.2459
CA 38.317 5.97121 86.4856
CA 28.1739 16.8838 75.3194
CA 44.0033 18.258 45.9091
CA 23.0833 -1.50559 66.0667
CA 18.5356 -2.35276 56.1947
CA 15.2536 8.77268 57.181
CA 36.1368 13.0369 39.1697
CA 40.4191 -1.88933 47.1005
CA 41.874 17.7055 65.2705
CA 16.6336 11.6248 10.7886
CA 25.415 -4.04549 42.6125
CA 54.192 8.05723 44.5583
CA 15.8545 1.70021 46.868
CA 39.6521 14.4599 82.1233
CA 4.21265 23.294 55.0399
CA 26.8062 21.0584 33.2728
CA 21.8753 3.11882 57.7364
CA 32.4414 15.5735 57.127
CA 24.46 -8.76131 53.6162
CA 7.53041 18.8853 53.5286
CA 2.46893 -0.334511 57.5504
CA 35.0245 21.6474 39.7187
CA 16.3646 14.1293 34.2209
CA 22.3623 -19.0247 55.5888
CA 15.7124 20.4652 8.12637
CA 41.0952 21.601 82.4287
CA 11.4297 19.4436 57.9576
CA 32.3006 16.2739 47.5337
CA 6.11216 -5.69948 60.9032
CA 34.2868 6.08037 68.9516
CA 31.5536 20.1369 69.4848
CA 27.4954 6.60834 62.6265
CA 45.6396 -4.18316 52.4327
CA 55.7226 6.67977 65.4048
CA 52.4133 16.4674 48.5568
CA 33.0159 7.2387 51.4889
CA 18.2644 27.1202 56.8005
CA 63.4643 14.575 63.0637
CA 42.9426 -5.31482 57.1151
CA 20.1156 13.7564 10.0965
CA 35.5698 -16.7823 60.9103
CA 28.7 18.2387 56.2115
CA 64.7078 7.68624 52.653
CA 27.9059 22.8493 81.5955
CA 11.4174 -2.52756 55.3566
CA 37.267 17.567 48.0556
CA 32.0897 -9.71575 47.6921
CA 38.224 -10.8649 45.3315
CA 10.5381 -6.05477 63.6546
CA 15.2964 22.4723 23.8654
CA 36.3234 4.1095 58.8727
CA 14.3129 -0.660781 82.8962
CA 26.3416 13.7127 38.6556
CA 30.8045 13.6268 60.3781
CA 39.4578 10.5154 40.6806
CA 36.7647 22.7521 43.4587
CA 20.2744 10.4653 85.3307
CA 23.7633 7.9248 66.858
CA 21.3817 13.0617 65.1712
CA 12.0343 21.022 61.0869
CA 27.955 12.9282 50.9549
CA 5.71429 -2.06133 54.1748
CA 19.5835 -2.28776 47.1277
CA 26.2187 -1.99277 74.5877
CA 24.824 -5.01176 28.2673
CA 22.566 -8.76406 59.6657
CA 18.4974 11.2801 64.2715
CA 32.1353 7.69682 41.1685
CA 21.0354 25.11 39.5055
CA 17.8918 22.3401 59.4768
CA 25.6194 15.5858 54.6962
CA 20.0347 12.4399 40.5301
CA 16.6028 5.52045 59.5197
CA 19.1397 8.56432 86.5278
CA 2.46738 20.3563 53.6151
CA 49.4018 4.50836 49.2925
CA 41.5863 6.44686 78.2591
CA 16.2645 1.92181 83.407
CA 19.381 12.6368 58.9508
CA 32.7615 -6.23611 44.0236
CA 21.9707 26.0825 61.1308
CA 37.9099 2.09024 65.0256
CA 20.548 -5.77716 43.9967
CA 26.1191 0.0870645 45.0197
CA 30.6432 20.6338 75.1749
CA 10.7584 1.79048 57.7381
CA 29.7957 -10.8638 44.3694
CA 23.4549 4.57344 86.1643
CA 24.7363 -6.07168 43.8024
CA 8.97393 9.94318 40.4009
CA 11.1674 10.7819 34.2529
CA 56.5229 9.57217 42.7876
CA 16.6996 13.7854 83.7699
CA 27.5147 3.59954 60.7753
CA 35.4716 4.34754 84.2607
CA 55.5007 -6.35874 43.857
CA 32.1588 17.0448 60.4066
CA 32.9664 6.91618 67.8832
CA 12.2537 -7.5405 60.5288
CA 37.9475 6.75735 79.9415
CA 27.0295 -4.54669 53.3876
CA 42.5054 12.9387 46.102
CA 45.7987 15.0496 55.5352
CA 7.48027 8.26721 37.1763
CA 36.5715 2.28028 59.3095
CA 41.5994 7.73522 60.1312
CA 24.1925 -0.912718 68.92
CA 28.4051 -5.62517 67.6827
CA 16.439 0.689219 39.7002
CA 29.7072 21.2198 40.2004
CA 14.3765 11.5842 3.61202
CA 21.0524 15.032 40.2039
CA 24.7595 -3.90741 70.0076
CA 47.4083 2.69842 51.5869
CA 35.4309 7.7394 65.661
CA 11.5864 12.2046 41.0836
CA 37.9288 8.73727 63.5675
CA 49.5632 8.92909 69.5855
CA 63.1937 6.78576 55.0312
CA 36.8366 6.00928 83.5844
CA 15.1645 12.8557 47.5793
CA 40.3138 5.20796 59.8018
CA 13.838 15.477 32.7667
CA 20.0882 17.3007 81.9009
CA 13.0741 28.4622 16.196
CA 12.3696 14.2513 55.0253
CA 39.54 10.6393 56.0228
CA 20.8318 11.6578 81.2199
CA 30.2994 5.40952 43.7273
CA 56.8503 13.3991 43.7945
CA 13.8496 0.889209 65.4173
CA 25.5483 20.8784 82.162
CA 59.4697 16.0985 63.4612
CA 24.2789 20.9378 84.9348
CA 54.4374 -1.57846 47.7679
CA 29.2796 19.0642 76.8991
CA 40.7739 5.19433 85.8233
CA 35.4138 8.06857 45.3525
CA 2.5043 -1.81984 58.6395
CA 17.8597 26.3289 15.4493
CA 45.0751 12.9798 41.2895
CA 44.2634 -5.21367 47.9533
CA 25.8375 -2.87505 47.9393
CA 21.5488 -0.984643 64.1957
CA 15.865 12.9877 57.1196
CA 41.5274 -6.8894 68.5999
CA 17.4113 8.73453 55.6978
CA 9.01595 17.8028 59.0929
CA 14.2689 9.56942 33.7441
CA 26.1833 1.51804 68.1444
CA 24.6568 -7.86126 71.1514
CA 10.7342 -10.3637 62.4217
CA 8.15585 -0.674274 58.3155
CA 28.1465 8.32134 41.2138
CA 41.2039 22.5571 85.6782
CA 43.9306 -13.5844 52.0352
CA 11.6309 11.9952 50.5904
CA 17.2095 -3.22777 47.2417
CA 21.9777 19.8571 79.0908
CA 25.5435 13.6509 64.7586
CA 52.8805 5.42272 67.0018
CA 18.983 -4.85796 58.6449
CA 38.7256 -12.1519 42.2136
CA 61.2334 15.7999 66.2675
CA 10.6502 3.85957 41.0001
CA 18.6802 -5.27692 34.4008
CA 28.6339 10.5892 50.4437
CA 10.5535 -1.82123 58.6213
CA 52.7245 17.1752 46.4353
CA 28.0194 -0.915837 69.4152
CA 21.969 6.16171 60.9496
CA 24.8801 -6.09974 35.4412
CA 19.3314 3.98382 37.7409
CA 54.311 6.50367 67.838
CA 15.6992 2.2204 38.0125
CA 17.5086 21.1209 78.0478
CA 26.9854 4.70381 72.0261
CA 20.6092 -13.6486 56.5252
CA 18.5284 -1.43229 80.4953
CA 22.2614 -3.42165 35.0262
CA 34.5002 -10.1423 63.5778
CA 14.1233 2.90476 37.1512
CA 23.0691 -5.34308 45.1361
CA 20.5944 2.01475 81.8618
CA 30.3914 17.5844 58.731
CA 28.9674 18.8068 46.8236
CA 32.247 7.11647 37.5907
CA 38.3855 18.3559 83.3632
CA 57.5091 9.36232 52.7874
CA 21.4545 22.8677 52.5722
CA 9.74628 21.8314 54.7085
CA 17.1903 0.42874 68.9723
