489

CA 46.4245 -7.18239 47.7095
CA 23.6857 -18.3396 60.5816
CA 19.3115 -22.7881 57.6717
CA 53.9876 11.2325 45.2476
CA 30.3824 1.27077 56.9291
CA 37.6508 7.71445 34.2308
CA 3.08995 -4.02613 58.6177
CA 39.8406 -6.46166 55.2714
CA 47.407 6.93838 57.3818
CA 22.3413 6.87001 58.8617
CA 28.1808 -5.99148 61.0793
CA 22.3316 -10.7669 39.8295
CA 4.59762 16.9408 56.4243
CA 23.256 1.78078 44.5126
CA 32.8426 19.8998 47.4171
CA 58.5776 6.65233 67.7295
CA 15.7103 22.6834 55.1686
CA 41.1533 0.840835 44.9735
CA 34.0094 17.6488 60.3541
CA 38.6612 -2.68732 57.3303
CA 25.0027 13.0449 40.1743
CA 29.4728 -6.04518 45.7605
CA 52.7419 -12.8398 64.0126
CA 34.3067 18.3905 37.3387
CA 35.7392 -2.01574 45.3212
CA 17.8818 21.8052 46.9188
CA 24.5008 16.2764 83.1502
CA 24.5917 5.29944 43.5343
CA 46.9856 0.797721 55.7127
CA 34.0828 -1.41183 56.2909
CA 56.143 7.37542 55.9108
CA 26.7812 18.2537 49.6552
CA 14.2685 5.51259 43.1216
CA 22.4719 20.0044 44.1607
CA 17.2948 16.0152 55.9931
CA 21.3576 16.316 63.1737
CA 19.4029 23.0569 19.8145
CA 16.5922 22.8319 17.6044
CA 41.3005 -11.1564 57.5683
CA 39.381 8.80937 73.5865
CA 34.9755 5.32182 73.8074
CA 63.0629 5.75161 53.1327
CA 20.1083 4.99513 47.5731
CA 41.5055 21.7309 86.5759
CA 36.1713 3.02131 64.0573
CA 41.2213 -8.39957 36.3374
CA 32.4032 -15.031 53.4849
CA 35.3095 -10.7923 42.8054
CA 31.0576 19.7733 80.6558
CA 23.2579 -3.20805 85.6079
CA 54.8823 12.7617 45.8293
CA 50.8661 13.8769 60.4662
CA 46.6309 -3.93426 39.8551
CA 17.6952 12.9753 2.84536
CA 64.9166 13.7125 47.8703
CA 33.7565 20.207 42.1857
CA 43.1541 -0.562877 64.5586
CA 51.2075 14.3099 47.1332
CA 29.014 -6.90554 41.3941
CA 39.8183 0.423239 36.1295
CA 45.3824 3.88678 44.2371
CA 18.1946 18.5064 53.0506
CA 27.761 4.49824 56.8489
CA 8.77284 23.7204 49.1054
CA 16.2833 20.0244 27.7041
CA 25.1302 -9.3528 36.3599
CA 24.7648 12.6161 53.5863
CA 16.7004 7.39774 33.3434
CA 41.6742 11.0709 43.3655
CA 51.4221 20.4934 45.8901
CA 35.9391 20.8738 39.6241
CA 20.1417 20.7993 57.7455
CA 50.3121 3.94555 52.2143
CA 17.865 8.13822 61.2728
CA 52.1543 7.91551 74.2964
CA 36.1535 8.93114 55.0698
CA 22.1758 21.295 47.0784
CA 15.3179 1.11114 58.7934
CA 52.343 2.60981 46.4
CA 13.063 13.903 39.0712
CA 29.1835 -7.07411 52.2148
CA 25.8321 -12.9331 46.0574
CA 39.1781 3.73412 80.8281
CA 16.9003 12.495 37.6387
CA 35.3801 -5.02232 60.6673
CA 37.882 9.98078 39.7919
CA 43.9983 -14.8551 67.9152
CA 56.992 12.0395 45.576
CA 37.8956 9.31998 58.6682
CA 61.5251 15.1948 53.0841
CA 21.1973 4.77941 51.2866
CA 43.0802 7.63843 48.0253
CA 30.1858 -7.58846 65.222
CA 17.5832 5.69671 52.5092
CA 20.6751 11.8427 37.9009
CA 9.9641 18.5467 61.8345
CA 26.6889 3.11625 58.8637
CA 18.98 -6.87284 37.1132
CA 42.509 -5.67105 46.5981
CA 55.0982 4.80145 50.8476
CA 8.29556 -1.98168 54.3775
CA 14.7395 7.6089 8.59107
CA 34.7829 18.1575 48.7266
CA 39.5114 16.1525 81.2042
CA 38.1801 -4.91441 58.206
CA 47.177 -11.1644 53.1674
CA 19.3429 -3.85109 66.3352
CA 23.0458 -9.68513 64.5276
CA 18.4306 12.9144 64.1281
CA 30.3704 10.2651 73.0488
CA 24.1459 -15.7182 62.3123
CA 35.4547 4.96887 49.3573
CA 59.6977 16.8164 48.6201
CA 49.1363 13.5675 52.9714
CA 21.703 -0.843101 87.5764
CA 33.3777 0.190151 67.9373
CA 10.9412 30.0287 19.646
CA 26.3618 -9.55104 49.5051
CA 32.7734 12.0207 40.5652
CA 3.23461 4.51329 54.2039
CA 52.402 13.6286 61.392
CA 30.6317 6.15272 73.6543
CA 14.1064 4.95381 39.8261
CA 13.8015 24.0624 41.6273
CA 36.9915 3.05304 55.5595
CA 11.3787 7.5385 3.47152
CA 5.71527 7.63393 45.993
CA 52.5584 11.1017 70.0277
CA 15.1935 -3.55591 52.2549
CA 32.4057 23.2354 50.5104
CA 38.0753 26.5576 77.8503
CA 40.493 11.2262 38.195
CA 15.8786 26.2217 49.0395
CA 42.9494 20.6606 83.2442
CA 27.1396 -9.99978 61.5195
CA 28.238 3.56883 86.5323
CA 42.4577 26.5839 83.3867
CA 29.6013 -10.3539 46.6852
CA 21.0688 21.1259 43.4941
CA 40.221 -5.17436 48.9177
CA 55.4298 9.62878 40.5157
CA 41.9721 -4.80265 79.887
CA 41.2374 1.99773 79.1353
CA 29.1572 3.30521 40.142
CA 9.09139 4.2792 54.495
CA 41.5945 13.836 69.7753
CA 41.6281 22.8942 83.8312
CA 38.7411 -17.0225 52.1389
CA 30.1711 3.75802 83.0262
CA 28.1987 5.55321 83.1077
CA 61.4145 9.71561 56.2294
CA 43.1703 16.6996 77.1689
CA 39.8037 22.7096 50.5864
CA 53.5504 -14.2088 54.2063
CA 28.4191 23.1937 64.361
CA 15.8102 1.57812 54.1741
CA 26.7693 20.614 68.4625
CA 31.1579 19.6218 68.4718
CA 18.4077 9.75369 50.091
CA 28.9521 9.65163 48.8847
CA 44.0899 -0.916342 60.8275
CA 26.5446 5.00409 67.6173
CA 36.5175 20.5748 50.8566
CA 24.9626 -13.3007 37.4537
CA 36.0529 -5.48536 40.4818
CA 30.9433 -1.64135 51.1634
CA 57.1067 6.50379 45.9873
CA 14.5303 -0.0479854 61.3568
CA 41.3403 24.2896 78.6194
CA 15.7946 18.7162 44.0915
CA 12.8185 23.6226 56.54
CA 23.5772 -6.39666 64.8656
CA 33.7044 11.7832 76.998
CA 37.2549 -9.3148 45.1298
CA 35.1756 23.2595 78.6926
CA 43.8506 18.4595 59.0924
CA 49.9883 11.2095 62.0203
CA 9.51931 1.41975 62.9874
CA 56.7036 4.74737 47.0359
CA 37.7187 4.41856 74.9363
CA 35.8882 19.8141 45.6683
CA 40.3076 17.8267 83.6696
CA 16.3121 17.4226 30.5935
CA 27.4654 -4.98412 70.4563
CA 16.545 14.1231 9.03405
CA 12.8877 11.2979 43.4622
CA 15.0356 18.8008 68.7796
CA 37.81 3.90938 58.0866
CA 14.4511 19.3299 14.557
CA 21.3704 15.3131 44.0543
CA 53.2401 9.32773 73.6926
CA 48.852 -8.30746 55.1775
CA 33.1148 13.7439 55.9102
CA 27.1647 21.8039 67.0212
CA 41.5987 10.4379 36.8926
CA 0.773044 15.0782 57.7489
CA 43.167 16.6715 32.2536
CA 13.6353 -1.6565 64.7986
CA 20.8099 10.1063 1.97851
CA 30.5316 18.5168 46.9515
CA 34.1873 1.68024 52.2983
CA 40.7372 -2.16187 45.6487
CA 42.485 10.6314 70.9844
CA 21.4142 13.9961 58.7339
CA 28.4236 3.96126 33.6978
CA 41.2539 5.25843 45.8021
CA 13.6234 6.01885 7.5425
CA 40.1097 -1.30517 37.6011
CA 36.6489 9.86667 37.2302
CA 27.6661 -14.5121 43.097
CA 31.5021 22.0067 60.0851
CA 39.1972 13.0532 77.4891
CA 7.01703 15.6379 59.4651
CA 44.376 -12.7607 65.3559
CA 17.3008 19.0862 39.6825
CA 42.9909 -6.19962 69.4525
CA 18.7387 16.1025 65.4033
CA 44.1379 -0.422046 66.2759
CA 35.3867 9.40072 42.2365
CA 41.2236 2.91344 76.3299
CA 35.8117 16.2039 77.8314
CA 21.3041 -4.95774 59.9844
CA 11.3201 1.54743 45.3796
CA 43.73 21.5175 76.9799
CA 47.3594 -5.53727 53.1575
CA 16.336 -4.69155 39.8418
CA 45.5504 18.0013 53.1008
CA 13.1644 10.7666 49.1583
CA 49.7099 18.8096 52.0718
CA 39.5665 17.9371 36.0372
CA 42.2508 -0.666527 46.2501
CA 30.0686 -14.8494 43.1615
CA 61.2026 10.5285 52.1488
CA 56.4329 11.1916 59.2298
CA 17.4688 0.434912 51.7593
CA 15.5247 10.3546 5.01703
CA 27.2477 15.3474 41.3474
CA 39.7085 -7.49907 38.6707
CA 48.9288 10.7866 65.9012
CA 26.4034 -9.08924 64.5256
CA 39.5953 -14.8059 56.2098
CA 28.1925 -16.2722 51.2447
CA 38.3277 12.8493 46.3953
CA 54.7167 -5.4302 50.8546
CA 17.4158 12.6179 39.7704
CA 17.1456 14.6891 45.8718
CA 26.7778 -11.83 41.7382
CA 47.4449 -0.397389 61.3929
CA 46.6699 -0.345499 66.7703
CA 23.7044 -0.728298 85.3551
CA 2.78404 0.146749 58.3446
CA 27.8498 -18.5683 62.2903
CA 22.9447 10.2509 83.0463
CA 28.8526 4.64439 67.8278
CA 17.5995 7.29679 36.1487
CA 51.5437 16.0886 65.3199
CA 30.9453 18.2773 65.7651
CA 58.4788 9.03657 49.9681
CA 40.8648 21.5724 54.5497
CA 61.83 1.7984 54.77
CA 29.4996 2.10037 35.999
CA 40.2192 -8.15155 66.4287
CA 20.1556 -1.01394 66.5958
CA 43.6361 19.2376 56.98
CA 40.3276 5.67194 58.0879
CA 30.3049 -16.6417 43.9371
CA 58.5097 2.90423 63.9048
CA 13.2662 9.3982 9.96308
CA 18.7402 12.1388 4.67515
CA 10.0711 -0.0924314 41.2905
CA 46.1405 6.65652 42.1888
CA 40.386 1.79799 66.0049
CA 32.468 6.57264 54.1065
CA 20.6069 14.5852 49.8915
CA 30.0045 -11.9232 53.969
CA 51.1816 17.1108 48.6321
CA 32.523 -0.293495 39.3106
CA 55.8083 11.2998 66.806
CA 54.0023 15.8779 49.6495
CA 37.7423 23.9292 77.3749
CA 29.1214 16.0028 60.6599
CA 43.4506 -1.51445 34.843
CA 9.10696 -0.717873 58.4459
CA 19.2369 17.0538 53.7239
CA 19.3533 13.1428 0.982735
CA 53.8497 11.2686 73.0312
CA 33.5475 6.74069 44.2611
CA 15.3576 15.2097 16.1897
CA 56.0565 1.51955 48.9323
CA 52.4452 -17.3231 59.8767
CA 54.0653 14.4627 66.3167
CA 40.1603 14.3301 48.0042
CA 33.1847 -7.93865 61.6497
CA 9.42885 32.779 18.4439
CA 9.94242 7.69263 44.8072
CA 31.8494 10.1974 68.446
CA 37.086 4.40782 47.5362
CA 44.1258 -1.29157 71.3123
CA 22.5231 10.4607 48.0177
CA 39.7557 17.0064 85.9762
CA 20.9155 -2.6577 60.8296
CA 53.091 15.7182 59.9678
CA 4.3494 -2.33553 45.1904
CA 42.6851 2.47436 41.1906
CA 34.357 11.0081 54.3817
CA 45.1152 6.33081 60.0698
CA 42.7079 2.88131 78.4591
CA 53.3858 18.3742 54.3718
CA 33.5702 23.1328 41.5788
CA 6.09443 4.32206 54.1957
CA 54.7783 3.80182 46.4414
CA 28.044 7.67317 63.8415
CA 40.0335 8.67501 49.7077
CA 42.8494 10.0319 35.4421
CA 39.6186 -0.518296 61.3176
CA 16.2903 24.2074 60.6541
CA 23.4237 10.2611 85.713
CA 43.8177 -1.20798 41.4735
CA 42.4342 25.0358 48.9647
CA 35.8566 -6.10346 42.4471
CA 23.1997 17.5638 40.0248
CA 45.0567 8.94054 66.2791
CA 29.3903 12.2209 77.6905
CA 11.4297 19.4436 57.9576
CA 26.1152 10.088 79.8433
CA 32.1144 2.65083 46.8668
CA 43.2095 -9.47195 69.1044
CA 25.0872 4.23567 79.0617
CA 46.9751 -7.03579 56.0192
CA 24.6774 12.971 42.7004
CA 26.3642 -7.10342 42.9358
CA 60.1124 6.11137 50.3814
CA 38.3149 22.164 76.3472
CA 6.57686 21.8721 60.1573
CA 22.5631 18.5747 70.1264
CA 14.5457 14.4143 34.7941
CA 56.5801 7.33122 52.9023
CA 24.5713 -10.4757 59.8889
CA 13.1311 17.2997 9.33113
CA 31.9274 1.42052 41.0247
CA 50.3153 0.0991662 52.0966
CA 24.725 2.02022 86.5824
CA 31.0241 15.1363 62.4845
CA 21.9975 -19.755 59.7876
CA 49.3166 16.1909 49.442
CA 35.2418 10.1922 39.2031
CA 15.2964 22.4723 23.8654
CA 21.5327 14.372 62.3849
CA 37.4956 19.4949 33.5366
CA 22.5826 15.3654 57.263
CA 27.1137 0.620386 67.5428
CA 25.6594 9.65378 82.7822
CA 20.5046 6.71034 58.1467
CA 9.62694 -5.55526 62.7904
CA 37.4806 19.1264 57.0347
CA 21.3817 13.0617 65.1712
CA 7.7269 3.80536 58.2753
CA 44.0407 1.27214 70.6864
CA 18.218 22.8751 53.7628
CA 30.8728 4.50491 37.2507
CA 39.7466 12.568 33.5961
CA 3.88227 0.67995 54.1212
CA 41.2888 16.2695 35.1813
CA 45.0154 0.00417438 74.1119
CA 37.2801 -2.20536 65.0279
CA 41.5805 16.0802 60.3757
CA 20.5697 -2.73551 37.6834
CA 8.04455 23.8575 53.9279
CA 35.9159 15.3758 46.2844
CA 39.9123 2.27179 72.8008
CA 42.0531 13.4488 60.335
CA 15.7824 8.27183 34.8418
CA 29.462 19.6679 62.4884
CA 29.2965 9.22698 64.1589
CA 39.1012 19.7637 36.131
CA 34.7177 20.5066 38.3198
CA 15.3898 18.3774 41.8725
CA 56.0083 -4.22776 51.4932
CA 12.5544 9.62224 41.0944
CA 24.7672 -11.8093 33.5916
CA 46.181 4.04192 54.8764
CA 21.6937 -2.5403 39.3488
CA 42.7969 -1.99525 81.918
CA 22.723 -0.804085 80.5418
CA 15.3795 6.12647 35.0687
CA 23.5402 -8.3021 52.8529
CA 55.7022 11.8077 41.5708
CA 39.2535 10.8038 58.4556
CA 36.6829 5.35207 32.7602
CA 27.6605 -0.581749 42.8235
CA 15.0884 9.67775 56.0661
CA 37.244 15.9538 47.471
CA 16.1474 25.9231 59.1521
CA 33.5676 12.4039 68.606
CA 56.4058 13.9141 64.5097
CA 16.0097 -3.29556 63.5954
CA 30.1878 -13.8749 45.0881
CA 18.2418 7.96916 55.0484
CA 18.2272 -2.70649 62.7136
CA 64.8409 13.205 50.2891
CA 26.7141 7.28257 58.1203
CA 23.7925 -6.88535 58.208
CA 30.9148 10.2487 58.6569
CA 26.4943 -12.6152 52.1801
CA 28.4051 -5.62517 67.6827
CA 29.7733 4.36713 61.1139
CA 45.5778 1.40025 46.1018
CA 14.3765 11.5842 3.61202
CA 42.6893 6.91446 56.7108
CA 5.66593 1.11105 48.1084
CA 30.8062 -3.41658 67.9596
CA 24.889 11.1723 87.9934
CA 45.3943 15.3842 54.8527
CA 28.7125 17.548 59.8086
CA 12.8343 0.436639 51.0611
CA 36.2244 7.62979 71.6448
CA 20.3718 16.9423 64.6765
CA 52.3391 -6.78674 56.1582
CA 21.7631 15.8357 53.3283
CA 31.2631 1.45791 36.1373
CA 21.8031 19.7423 40.446
CA 13.0741 28.4622 16.196
CA 18.6241 6.49653 60.4753
CA 38.3571 -2.08548 55.1089
CA 35.6593 4.15594 54.7224
CA 6.23173 -3.59088 59.8063
CA 21.4179 0.317119 33.1426
CA 27.5948 4.48384 39.2657
CA 17.7161 3.3152 63.9009
CA 47.991 -9.61968 60.5545
CA 49.3592 -6.56714 56.6489
CA 39.9946 18.985 76.4214
CA 32.8596 -7.01293 44.9891
CA 43.2081 -0.656427 80.2412
CA 40.1501 -4.01591 54.3503
CA 27.1128 21.1655 51.1413
CA 17.8597 26.3289 15.4493
CA 31.5928 12.2649 51.9943
CA 52.5431 -9.19504 52.9583
CA 52.7684 8.01406 67.8601
CA 48.2625 -2.14566 56.1783
CA 65.7368 8.07909 52.3257
CA 34.0331 21.3369 55.9197
CA 49.7899 -4.54722 59.2592
CA 9.2537 -0.0325762 64.0888
CA 16.8705 24.3454 55.2554
CA 61.4994 4.50828 58.1174
CA 14.8771 -4.72539 61.5192
CA 9.78367 2.45574 46.5332
CA 34.0738 4.35215 59.2811
CA 42.0832 23.3373 50.2484
CA 24.184 5.82473 48.2566
CA 5.52665 -1.23665 59.4004
CA 25.5012 -13.7003 42.364
CA 15.9084 18.4888 54.4993
CA 46.2581 -2.73095 67.2497
CA 31.9717 18.4713 58.812
CA 14.9566 6.85331 59.1155
CA 26.5678 14.085 40.1915
CA 23.7955 -0.598943 82.6226
CA 27.4534 -0.845983 69.3048
CA 9.47551 24.5478 51.1781
CA 53.6376 6.2217 68.5885
CA 51.847 -14.2039 59.6184
CA 8.17499 18.2414 60.4114
CA 37.749 19.2827 75.8427
CA 40.4682 -3.1247 34.2345
CA 49.155 7.01209 65.876
CA 24.3456 0.901293 83.4598
CA 18.001 12.4953 45.3999
CA 31.1246 -5.34135 61.5599
CA 29.7505 -9.59862 53.0853
CA 28.7581 -9.66182 58.2804
CA 59.1165 13.4228 47.8165
CA 36.9225 -6.48956 35.9632
CA 35.7284 26.1972 75.2712
CA 25.5904 14.4751 42.2051
CA 54.6304 15.5464 63.4403
CA 19.9175 -9.38693 34.155
CA 28.9278 15.4747 81.8405
CA 32.0538 -2.19116 33.2158
CA 37.6438 -6.54176 58.7968
CA 28.1011 2.92697 53.4221
CA 18.1357 -1.88771 34.5713
CA 26.2926 2.28833 41.1403
CA 29.3221 -0.231816 66.8131
CA 10.4459 22.0405 45.643
CA 23.706 -0.983725 32.3794
CA 31.0953 19.6763 40.4795
