489

CA 50.1334 0.470478 62.7641
CA 53.3465 10.8771 46.8868
CA 32.8856 -8.30083 36.6672
CA 41.8884 4.71808 68.3319
CA 50.0913 -3.33532 56.3206
CA 37.5103 -9.06258 36.3381
CA 15.2381 2.8576 61.8223
CA 31.444 -5.61833 57.2335
CA 28.0768 11.6706 80.5528
CA 16.5444 11.2493 62.869
CA 12.85 23.4621 57.1132
CA 35.2351 -7.6581 55.7312
CA 44.6119 -2.07573 74.845
CA 23.0368 -9.92282 39.9593
CA 43.2994 13.6952 76.5587
CA 33.2121 13.9953 61.4358
CA 61.1763 19.1983 71.2302
CA 45.9586 25.9579 55.4819
CA 35.5579 5.06283 43.9283
CA 39.3111 21.3923 77.1005
CA 15.7275 0.773438 66.915
CA 54.9001 19.3662 51.0909
CA 60.1115 -5.65303 61.4282
CA 32.0305 25.4252 68.0233
CA 43.5563 -10.0683 41.8746
CA 30.3463 10.9742 44.1089
CA 47.9324 29.3227 53.3421
CA 43.5346 1.80043 53.9125
CA 35.0489 14.9278 55.4856
CA 46.6758 13.8775 34.5857
CA 32.1076 10.5201 86.0227
CA 18.1383 19.4238 48.6147
CA 47.4413 4.95172 65.3852
CA 38.8553 -6.83339 37.1551
CA 46.809 10.463 43.2239
CA 38.4785 3.83666 42.9672
CA 19.4029 23.0569 19.8145
CA 16.5922 22.8319 17.6044
CA 28.1211 15.2092 61.8248
CA 6.45336 15.4179 59.2198
CA 51.5986 6.87503 63.4173
CA 15.0919 -0.287648 59.2485
CA 32.508 16.7078 60.5457
CA 24.1845 -13.7135 51.3528
CA 21.1178 18.7123 38.1997
CA 35.9468 -4.80661 61.7633
CA 35.2215 6.42573 54.528
CA 50.9228 -5.71018 51.1311
CA 35.6553 24.6313 73.3905
CA 40.686 -5.90328 59.023
CA 51.6421 19.1625 59.4352
CA 44.5784 -5.99172 86.1199
CA 24.128 7.58834 63.9573
CA 25.7336 25.0936 30.8619
CA 42.892 3.96621 78.0182
CA 35.3871 1.07919 57.7345
CA 13.3433 -4.58683 52.3005
CA 12.1398 20.6438 45.8395
CA 20.3329 9.13988 61.7733
CA 20.1714 -4.76639 54.0942
CA 23.0603 7.22799 51.1629
CA 35.1214 6.16571 64.8932
CA 15.4643 19.1983 26.1172
CA 10.4076 -4.48619 66.1868
CA 26.9406 -10.7976 42.766
CA 38.1828 26.5602 56.5511
CA 16.396 20.8336 59.2873
CA 20.5351 23.192 51.1287
CA 42.2204 4.86307 55.8364
CA 31.4017 18.8732 68.7434
CA 26.2102 -10.5061 67.1599
CA 33.0871 3.3356 55.3252
CA 40.3965 -6.13037 44.3724
CA 29.4507 23.5207 40.9906
CA 12.3485 18.7151 49.8611
CA 36.1197 2.24654 60.3539
CA 51.2104 10.0099 57.7486
CA 38.0859 -6.44938 40.0905
CA 42.2084 21.4942 54.0496
CA 14.3983 17.5765 61.6169
CA 45.1586 24.6039 53.8216
CA 20.418 21.4694 36.5959
CA 43.6301 12.3558 41.2831
CA 42.3304 -1.60546 57.3344
CA 11.802 11.2078 43.5096
CA 19.5984 12.3992 37.5719
CA 5.25546 13.9266 3.54082
CA 35.863 -3.76726 50.918
CA 17.7156 20.2082 42.3988
CA 34.3365 15.3297 81.4706
CA 17.1284 12.9872 1.79097
CA 58.2087 10.7874 60.496
CA 42.0498 11.87 62.5609
CA 31.3797 16.592 58.3626
CA 57.2861 29.7165 66.5326
CA 46.4539 7.87083 71.9117
CA 12.7464 0.400485 52.7546
CA 47.8902 1.02143 55.6041
CA 35.3682 -2.2693 55.7515
CA 22.4675 23.7144 55.7343
CA 31.8831 2.42446 53.2795
CA 33.4056 -9.49282 33.3612
CA 37.8977 -4.22811 50.8301
CA 39.5114 16.1525 81.2042
CA 49.0564 -1.4403 86.5991
CA 45.2388 11.5648 41.9098
CA 26.3743 -4.18369 55.808
CA 29.6712 -5.88266 36.8083
CA 58.3424 18.7967 69.3585
CA 18.7634 23.9586 46.6488
CA 10.383 6.37282 55.79
CA 11.9682 15.1225 45.6309
CA 29.8949 16.7929 30.7291
CA 35.2005 20.139 52.8665
CA 28.9421 -1.69143 64.503
CA 32.7508 21.6472 49.4106
CA 10.9412 30.0287 19.646
CA 27.7306 8.92083 29.6722
CA 24.8681 16.54 41.2322
CA 57.0945 -2.84501 59.1489
CA 28.4482 -9.94369 43.9411
CA 36.8427 4.89964 73.9525
CA 43.4937 9.96633 47.3009
CA 42.9644 7.60653 61.8891
CA 28.1467 -4.6003 68.9403
CA 14.8809 15.3217 40.4556
CA 27.0478 12.0467 41.7109
CA 26.602 16.333 37.9717
CA 13.3128 14.4615 16.5563
CA 39.0351 10.9325 83.3128
CA 48.7931 11.7078 81.8442
CA 42.6245 -4.80193 81.6021
CA 42.352 10.0721 69.2219
CA 33.1417 18.8386 64.5767
CA 37.5115 15.1761 36.7386
CA 12.4091 11.7784 2.08695
CA 24.3937 20.3505 40.3452
CA 50.0742 6.45704 55.8959
CA 34.0957 7.37789 48.9575
CA 57.1066 24.3264 67.0924
CA 27.5248 4.97459 37.4865
CA 40.291 19.7337 88.389
CA 40.9785 0.197182 44.3757
CA 41.4605 15.4977 91.53
CA 23.02 17.1271 49.4798
CA 43.4028 9.91291 42.3386
CA 34.0381 -2.91386 39.0839
CA 30.1543 2.83062 42.311
CA 23.0685 19.7029 75.2694
CA 38.3725 -6.55606 61.8805
CA 47.1297 18.6134 40.2144
CA 41.382 18.9819 85.4394
CA 46.4187 -3.19821 72.1375
CA 33.8673 12.875 72.3801
CA 47.3913 20.2866 46.4644
CA 48.0997 27.943 56.7317
CA 35.9642 24.7598 46.8702
CA 25.9469 17.9758 77.331
CA 28.0769 6.80595 66.4914
CA 45.263 -6.17744 81.0716
CA 37.6909 15.4849 55.8734
CA 43.8353 1.52563 74.5797
CA 23.947 26.1711 41.6686
CA 34.2396 17.066 33.4078
CA 25.4099 -10.1277 43.6962
CA 40.2614 26.0975 58.1787
CA 32.3739 -13.4409 63.663
CA 40.9584 -1.34739 36.2611
CA 43.3711 4.40461 43.3212
CA 18.4274 3.69717 66.7726
CA 59.2172 13.5489 63.942
CA 23.9831 -5.30224 63.1155
CA 31.0007 -2.63842 64.8547
CA 47.3053 -6.64449 59.6653
CA 57.9623 10.0188 52.9521
CA 27.8542 11.302 52.8233
CA 25.7938 -11.4671 49.4421
CA 49.1072 -5.72345 60.7286
CA 46.9108 28.1695 52.0278
CA 7.83006 22.8642 56.5323
CA 52.6961 6.86372 49.8763
CA 44.1377 6.53405 46.0385
CA 16.3121 17.4226 30.5935
CA 15.6777 8.88995 39.6724
CA 15.2686 -3.35578 63.0898
CA 44.5017 -6.00342 48.9283
CA 48.0717 15.7488 30.5852
CA 60.6881 6.25689 56.2733
CA 14.4511 19.3299 14.557
CA 34.7875 24.8052 71.3592
CA 44.214 27.2977 56.39
CA 15.0944 7.50602 2.994
CA 32.78 6.09372 31.9365
CA 31.4391 1.26453 44.2152
CA 24.6261 -0.632147 68.5703
CA 42.7138 15.7458 56.4905
CA 50.2034 1.8967 51.6351
CA 13.6353 -1.6565 64.7986
CA 26.0775 2.12336 43.7664
CA 21.8948 19.7255 53.1084
CA 19.8091 -7.41229 49.9315
CA 11.4017 -0.435056 53.815
CA 32.3326 15.4788 76.6513
CA 42.5747 31.3061 57.1268
CA 34.8934 12.1296 44.9742
CA 14.2968 20.1353 44.2731
CA 25.5892 -10.8652 55.749
CA 28.3415 -6.68962 45.8481
CA 26.3578 14.2805 49.7884
CA 48.9715 -3.81192 88.9006
CA 47.2738 -14.3168 57.638
CA 27.6898 5.77826 30.8717
CA 26.6142 25.9368 46.1194
CA 40.2692 17.2916 74.2654
CA 29.1817 13.7092 83.8642
CA 33.4422 15.7059 51.7119
CA 26.0841 15.2978 54.0268
CA 36.6144 5.04733 46.345
CA 44.6176 14.6269 29.1235
CA 42.3933 17.8422 95.9887
CA 46.3094 7.74363 44.6747
CA 25.7374 5.05464 69.5475
CA 41.7774 2.46418 65.162
CA 37.6486 3.82366 60.9046
CA 43.1959 2.39799 67.2331
CA 23.1345 19.2971 38.1887
CA 45.5504 18.0013 53.1008
CA 36.673 4.33325 56.8952
CA 46.9794 -1.05659 84.4056
CA 40.9433 10.5234 53.9636
CA 19.2423 -3.85495 52.1141
CA 36.0293 16.9385 45.5226
CA 44.378 14.4159 73.7847
CA 39.7913 7.32123 61.1802
CA 56.2038 18.0276 51.237
CA 15.5247 10.3546 5.01703
CA 25.6224 10.8353 43.9536
CA 38.416 2.979 76.829
CA 19.6758 -6.61019 55.5651
CA 30.425 16.4179 77.8791
CA 20.0562 -1.34171 69.9028
CA 32.8132 -13.892 38.1646
CA 42.5492 7.47677 63.7717
CA 20.7563 -9.93232 59.8873
CA 33.1921 7.38943 88.271
CA 24.4594 -3.30684 52.735
CA 51.0464 -0.910512 85.3035
CA 28.1301 17.2822 81.4141
CA 51.8696 18.5225 47.5138
CA 25.3428 -14.0362 55.2497
CA 45.8631 12.0631 66.8706
CA 19.6868 26.3127 44.7233
CA 56.4594 6.40739 52.4175
CA 30.0824 -8.97986 54.5472
CA 44.8137 15.0359 36.7631
CA 36.8083 7.90921 76.7885
CA 44.1394 12.4398 71.0433
CA 58.4788 9.03657 49.9681
CA 10.5249 16.4362 42.5133
CA 30.4553 15.3368 63.525
CA 41.4801 -9.64777 38.7589
CA 32.0116 15.4378 53.4594
CA 42.1044 20.1678 93.6851
CA 12.4538 -1.85455 66.2088
CA 11.4011 5.75269 59.1077
CA 24.3683 13.3096 44.9532
CA 19.0775 27.7728 40.8559
CA 40.0753 -7.35396 39.0845
CA 60.8023 13.6768 52.2741
CA 34.8674 20.8574 69.8656
CA 45.4695 -5.2684 64.8749
CA 42.4124 -1.41646 79.4897
CA 33.1174 3.53833 28.2725
CA 8.40805 16.964 60.1845
CA 50.5681 10.4828 54.1529
CA 30.4077 11.82 49.1207
CA 30.5244 1.49305 48.8876
CA 18.8491 24.2146 56.5707
CA 28.6793 -10.2507 67.8095
CA 33.9928 -6.68136 60.8377
CA 40.4996 -1.03769 61.4819
CA 25.1817 14.6129 81.6762
CA 38.1561 -6.68973 43.3984
CA 45.2607 9.56527 82.0479
CA 19.3533 13.1428 0.982735
CA 13.9116 10.6049 49.6944
CA 21.7707 18.5597 58.4811
CA 15.3576 15.2097 16.1897
CA 36.2919 13.1202 85.9666
CA 43.8607 0.54701 69.9133
CA 35.2007 7.51027 50.9568
CA 45.4429 21.844 46.1556
CA 32.8933 8.05145 67.0185
CA 9.42885 32.779 18.4439
CA 52.2105 2.55573 59.8238
CA 29.2363 21.1567 65.7288
CA 25.3343 28.8924 36.9403
CA 35.3657 14.2875 38.3801
CA 37.8138 -9.78773 42.4313
CA 58.2944 14.1702 58.2361
CA 26.0626 6.43024 33.5746
CA 53.076 28.5514 55.9044
CA 27.1129 7.19982 40.0832
CA 43.6713 -14.5347 58.1194
CA 35.4416 -1.78105 52.8632
CA 31.2328 28.2127 31.1258
CA 26.7072 -4.03784 50.8739
CA 33.0752 17.8179 34.7298
CA 29.598 14.3076 37.2296
CA 13.2923 9.84191 3.65831
CA 34.7892 -15.2448 33.8264
CA 40.0509 -2.93012 50.5264
CA 28.129 -7.72751 43.1549
CA 56.8375 24.9032 65.0552
CA 14.6106 22.6759 57.5802
CA 60.8261 10.0951 55.608
CA 41.3088 11.2879 30.3581
CA 37.1791 17.5875 93.9435
CA 28.8351 6.28382 27.7307
CA 31.9163 10.8635 29.5526
CA 42.855 17.0205 36.9469
CA 38.3643 6.63708 76.9708
CA 56.2557 12.6473 50.921
CA 27.0105 26.0224 36.2299
CA 27.6968 30.7718 35.4616
CA 24.1456 -11.9924 42.8407
CA 43.5081 11.4394 74.8288
CA 25.767 9.97785 53.4897
CA 23.304 -4.28406 67.3629
CA 51.1329 24.6394 54.0657
CA 14.3456 17.9492 64.331
CA 57.7427 12.2846 64.9323
CA 16.7704 6.593 53.0593
CA 38.031 -1.91279 34.7875
CA 22.0046 15.163 44.8708
CA 32.1821 9.63287 65.9404
CA 44.8394 13.1002 50.7943
CA 53.705 10.049 65.6418
CA 13.1311 17.2997 9.33113
CA 25.5711 18.2831 53.2239
CA 52.788 15.6832 70.4014
CA 33.9211 9.52956 53.99
CA 39.1138 27.1066 47.6643
CA 5.76335 6.15809 59.5806
CA 26.0019 -9.3682 49.5413
CA 56.8156 9.82069 62.7057
CA 15.2964 22.4723 23.8654
CA 8.64384 21.1364 47.9034
CA 46.4311 15.7245 50.8289
CA 27.2637 32.8353 41.2785
CA 46.4173 26.0353 58.5923
CA 32.8812 5.18343 29.0015
CA 13.4638 22.3291 53.503
CA 27.6312 24.67 33.3157
CA 21.9388 8.76421 40.4698
CA 35.453 18.2225 48.3361
CA 32.1661 0.0259909 38.1463
CA 9.3796 -3.689 67.9974
CA 19.0385 -2.24457 51.1227
CA 24.2193 10.9441 42.3684
CA 29.5978 7.14548 33.457
CA 39.6717 1.54828 79.7472
CA 10.7613 19.4673 59.4488
CA 25.3031 28.1876 50.2003
CA 39.5525 1.46572 35.0554
CA 45.0817 -5.82165 45.9367
CA 44.8775 2.28918 50.2004
CA 39.1341 5.96686 54.391
CA 35.6348 3.84326 41.2627
CA 37.7779 15.8581 34.902
CA 33.8836 7.20175 73.8968
CA 53.7486 19.3942 56.772
CA 28.4269 14.7289 76.156
CA 43.3321 7.19153 38.4044
CA 58.2562 12.858 49.2685
CA 48.7367 -0.0537889 88.789
CA 32.4462 -4.36808 65.2549
CA 10.7604 -0.415396 61.8371
CA 48.9737 16.6877 69.4968
CA 30.3265 20.7784 68.8815
CA 55.5806 12.7975 49.0364
CA 24.7261 -3.06949 61.5989
CA 37.9931 -2.1305 36.726
CA 30.509 25.3048 37.7859
CA 34.3177 -9.18329 52.9419
CA 21.8791 19.7569 56.6676
CA 34.1106 16.8811 65.9033
CA 34.0371 -2.95169 34.7343
CA 24.6729 -10.613 62.4832
CA 36.536 -2.92914 35.7615
CA 55.366 3.32817 63.1328
CA 37.1231 20.6434 76.1252
CA 50.6474 -11.344 59.4916
CA 17.6011 11.0553 57.9811
CA 28.9398 9.56408 63.1654
CA 48.6665 17.0017 63.904
CA 46.2534 14.156 78.8427
CA 38.5827 14.2372 73.402
CA 45.5737 15.3729 32.1591
CA 53.5553 -9.22442 48.1176
CA 35.2762 23.0359 72.0068
CA 35.674 26.6005 47.2711
CA 41.1681 1.54723 71.8969
CA 17.8275 -2.45841 53.9532
CA 20.6003 23.534 44.9641
CA 46.0355 1.9525 82.4523
CA 22.9745 11.9392 52.5149
CA 14.3765 11.5842 3.61202
CA 51.9022 0.416682 83.1389
CA 36.4572 23.9476 49.7786
CA 29.2328 -9.15281 37.4048
CA 44.7765 3.37578 54.4072
CA 37.0943 10.6615 48.3373
CA 38.5948 10.7765 73.5818
CA 20.1335 12.579 57.0326
CA 44.4552 17.8292 30.9393
CA 57.1129 16.0924 60.4172
CA 44.1229 18.2257 49.7945
CA 32.674 27.6652 48.6849
CA 30.2553 13.3876 61.5815
CA 39.0026 -1.9726 60.6116
CA 13.0741 28.4622 16.196
CA 26.9075 17.563 67.8747
CA 28.4079 -14.8624 65.5751
CA 14.5111 10.9879 7.12316
CA 32.4968 22.3218 39.1123
CA 21.1804 1.09379 48.3639
CA 58.0834 18.686 66.1797
CA 35.5035 23.5713 68.0812
CA 14.187 5.10767 65.1355
CA 14.1113 27.1208 40.1889
CA 42.1419 16.9601 54.2601
CA 24.9032 -8.17885 66.0195
CA 46.6603 18.6267 28.6804
CA 47.0189 33.2861 52.8495
CA 22.7178 -7.26384 65.0368
CA 17.8597 26.3289 15.4493
CA 32.3769 10.8916 52.2838
CA 34.9042 8.05579 44.4596
CA 30.1207 -10.2591 33.9415
CA 12.4426 21.7106 61.8237
CA 42.9315 14.1156 53.4786
CA 23.7697 1.68143 37.7163
CA 27.6271 4.4955 62.5055
CA 51.221 11.6222 56.8809
CA 15.9672 23.7091 47.2831
CA 36.4048 -5.38237 57.1519
CA 48.0411 14.3736 78.7429
CA 39.2095 10.2299 33.8573
CA 18.5411 19.3248 31.7152
CA 14.3208 1.74666 55.1066
CA 32.0482 -0.366444 43.1041
CA 37.5286 4.32859 37.7318
CA 41.2234 2.59887 45.8759
CA 20.4946 12.2323 60.7059
CA 26.9567 17.6711 42.2979
CA 41.0087 13.0606 37.3428
CA 23.6196 25.2622 46.7167
CA 8.55624 1.71984 56.352
CA 50.4925 13.7708 69.2284
CA 52.3211 18.4389 67.3204
CA 26.0817 28.5942 39.7704
CA 35.3646 8.12174 73.2982
CA 44.6076 1.26869 38.4003
CA 50.3704 15.7641 63.7069
CA 24.1227 -7.58434 40.653
CA 43.7411 30.381 55.9007
CA 53.7913 16.8251 65.3026
CA 20.1393 8.88272 55.0704
CA 16.4889 13.4434 60.3962
CA 32.1636 14.385 33.2203
CA 41.5473 5.0293 46.4744
CA 13.8716 14.0854 6.94205
CA 10.4412 7.29961 50.6877
CA 48.4452 4.17916 52.8001
CA 35.7284 26.1972 75.2712
CA 44.2301 16.1467 46.2672
CA 9.71917 13.5347 4.06176
CA 46.5806 9.57027 70.2896
CA 25.0145 3.81321 67.2409
CA 31.1942 14.9145 72.3487
CA 21.2901 1.32323 35.2563
CA 28.9351 9.04142 66.014
CA 12.6144 13.4437 0.307703
CA 34.9879 -5.14346 51.688
CA 52.5376 -0.469347 57.5164
CA 27.558 1.06388 35.162
CA 17.4358 26.5859 55.3159
CA 26.5756 12.7439 76.7254
