489

CA 35.913 -0.567708 36.2282
CA 33.5125 3.21378 51.5206
CA 32.2003 10.2903 64.1338
CA 28.3172 30.4913 49.8849
CA 50.987 12.2406 38.3608
CA 39.9024 24.5901 63.9502
CA 37.6554 13.9569 64.9691
CA 31.9162 14.4121 48.7379
CA 36.1209 18.9806 42.4399
CA 16.5444 11.2493 62.869
CA 17.1533 6.92383 41.7603
CA 11.9233 -5.08366 61.936
CA 27.6685 1.68116 60.892
CA 12.2587 13.0103 60.6297
CA 18.6449 24.1441 52.1127
CA 26.7357 -4.59579 67.7816
CA 34.6807 -1.86899 57.0201
CA 20.6644 30.1947 39.7601
CA 35.5579 5.06283 43.9283
CA 4.36362 3.85635 58.9336
CA 25.5165 11.0226 66.6186
CA 11.7514 7.9885 3.93016
CA 27.1995 12.3735 44.7397
CA 32.0305 25.4252 68.0233
CA 56.133 14.2437 63.5532
CA 12.1978 14.727 47.4107
CA 47.9324 29.3227 53.3421
CA 19.5801 3.4348 50.9215
CA 41.9252 2.85466 37.4372
CA 7.16922 19.0812 56.1761
CA 52.8242 4.98059 45.3221
CA 36.0032 4.49467 78.0134
CA 19.7772 23.309 62.9547
CA 47.964 4.99573 45.3184
CA 46.809 10.463 43.2239
CA 29.2337 -0.843306 73.2277
CA 19.4029 23.0569 19.8145
CA 16.5922 22.8319 17.6044
CA 22.7193 -11.2433 47.6307
CA 47.4147 13.8981 40.8093
CA 16.2262 17.169 49.2217
CA 44.4962 13.7053 63.0044
CA 24.8636 19.669 61.9267
CA 24.1845 -13.7135 51.3528
CA 21.1178 18.7123 38.1997
CA 41.8082 -6.13453 45.9969
CA 37.7748 2.37356 52.4286
CA 24.41 11.205 56.2983
CA 37.9858 24.8001 44.5264
CA 43.5834 15.7362 79.8503
CA 40.0481 21.3158 45.8467
CA 40.4489 2.6573 30.9685
CA 46.2998 6.11672 89.8112
CA 8.31982 3.91401 61.3314
CA 50.91 2.75751 39.1732
CA 36.6264 18.4293 75.0763
CA 38.9065 25.8315 74.509
CA 8.08385 -8.21518 60.0127
CA 38.3751 17.4875 32.1527
CA 31.4291 13.5873 37.3849
CA 23.4026 -14.9185 46.2638
CA 45.3233 17.3045 35.8557
CA 38.7656 27.4201 46.8349
CA 32.1543 16.2845 49.7013
CA 44.9077 0.525217 85.848
CA 43.6732 0.951042 83.5191
CA 16.396 20.8336 59.2873
CA 33.9208 11.4791 62.494
CA 42.2204 4.86307 55.8364
CA 25.7802 17.028 42.8946
CA 24.5901 16.3918 63.0286
CA 32.2141 21.4077 65.4509
CA 40.3965 -6.13037 44.3724
CA 56.1049 2.89786 58.5555
CA 48.5732 3.29831 49.4297
CA 33.2961 -0.121248 57.6729
CA 51.2104 10.0099 57.7486
CA 45.4521 -6.25162 60.4629
CA 46.1183 -6.21833 44.7908
CA 64.3647 9.95932 60.4986
CA 48.6838 13.0381 35.0458
CA 20.418 21.4694 36.5959
CA 34.5411 27.6292 43.1156
CA 20.7692 -2.10319 59.1527
CA 50.537 2.0395 36.7816
CA 19.5984 12.3992 37.5719
CA 5.25546 13.9266 3.54082
CA 55.3545 11.653 50.5611
CA 17.7156 20.2082 42.3988
CA 34.3365 15.3297 81.4706
CA 17.1284 12.9872 1.79097
CA 35.5073 15.0949 40.2269
CA 42.0498 11.87 62.5609
CA 59.628 5.43704 59.3395
CA 45.8436 0.422217 39.5833
CA 31.8522 9.57363 53.7485
CA 11.6445 13.6759 6.12221
CA 47.8902 1.02143 55.6041
CA 4.27592 13.3541 53.4317
CA 31.3896 9.23342 40.5022
CA 26.2891 -3.91557 58.3371
CA 20.2033 9.18897 3.08104
CA 42.1152 2.68295 68.6437
CA 44.713 -9.22214 65.8824
CA 47.8173 2.53061 87.9155
CA 34.1474 14.6158 34.6343
CA 43.6278 17.44 63.6359
CA 26.6279 8.9678 67.1767
CA 25.317 16.1276 54.0771
CA 24.1087 6.16263 69.3897
CA 46.7813 4.34154 88.5013
CA 50.7427 13.982 36.576
CA 48.1738 5.77081 43.128
CA 12.2873 21.2536 66.8539
CA 26.6629 3.4392 56.741
CA 46.0641 5.04347 46.2284
CA 10.9412 30.0287 19.646
CA 51.7432 1.10101 85.3359
CA 41.7811 -9.78205 61.6604
CA 37.0901 -14.6877 42.5845
CA 18.3898 10.9045 44.0138
CA 48.1011 18.5794 62.4508
CA 40.3213 9.19228 79.7324
CA 42.4568 7.70483 52.0094
CA 39.2042 16.4732 35.5942
CA 14.8809 15.3217 40.4556
CA 54.2997 15.5628 59.6845
CA 27.8998 15.9608 42.7603
CA 13.3128 14.4615 16.5563
CA 47.0062 10.5163 66.7301
CA 10.7928 17.7482 50.959
CA 43.9563 -6.64876 51.8223
CA 30.6192 19.1306 73.1309
CA 38.4235 0.600119 74.9003
CA 44.4714 14.6495 49.1243
CA 12.4091 11.7784 2.08695
CA 22.819 10.5153 36.9756
CA 46.6594 -3.54268 57.6844
CA 44.3979 8.14876 64.3723
CA 39.3077 -4.82801 49.122
CA 30.3888 0.909304 63.1859
CA 40.291 19.7337 88.389
CA 26.1234 1.84617 59.3226
CA 41.4605 15.4977 91.53
CA 47.2643 21.6238 63.536
CA 35.5575 12.1236 61.995
CA 54.9877 11.6009 67.5388
CA 42.921 -8.42306 63.9457
CA 54.7259 0.985972 84.1726
CA 26.8479 24.5031 44.4968
CA 21.7592 3.18485 32.8134
CA 31.608 27.4779 66.5253
CA 56.5608 14.7916 69.7118
CA 33.8673 12.875 72.3801
CA 62.4572 17.1864 60.1484
CA 40.6138 -1.21525 36.4659
CA 54.3474 6.28953 46.5315
CA 24.9855 -13.7632 46.5853
CA 43.521 19.752 39.8436
CA 45.9311 20.1438 58.6775
CA 41.8542 26.0325 61.5005
CA 43.8353 1.52563 74.5797
CA 23.947 26.1711 41.6686
CA 25.8399 21.625 60.9731
CA 41.5091 3.07995 49.6995
CA 49.4834 2.5727 40.5519
CA 8.77159 14.485 49.5825
CA 29.1933 9.84987 59.7177
CA 25.9129 4.76925 36.3977
CA 50.845 13.3304 58.5556
CA 44.0774 -9.93435 46.0146
CA 47.7618 18.2568 66.3966
CA 43.4407 -4.87787 57.4551
CA 47.3053 -6.64449 59.6653
CA 63.0326 11.2989 56.0207
CA 31.0507 0.540246 65.6767
CA 15.6609 11.6362 44.5893
CA 49.1072 -5.72345 60.7286
CA 31.7829 20.0622 50.1782
CA 40.4037 6.34153 81.4685
CA 52.6961 6.86372 49.8763
CA 34.9229 3.40732 54.7824
CA 16.3121 17.4226 30.5935
CA 15.6777 8.88995 39.6724
CA 38.0114 6.47229 46.7936
CA 17.8663 12.554 43.237
CA 48.0717 15.7488 30.5852
CA 41.8617 26.472 52.9293
CA 14.4511 19.3299 14.557
CA 23.0883 10.7093 67.5875
CA 38.6974 -7.2459 57.712
CA 15.0944 7.50602 2.994
CA 46.6267 22.5203 56.8662
CA 61.0323 14.2344 54.1597
CA 49.2197 18.5471 30.5468
CA 41.2687 9.12021 30.8609
CA 23.4486 7.13155 44.5843
CA 48.9816 13.8 50.5478
CA 51.7384 1.72151 87.0567
CA 56.2707 5.13958 41.7264
CA 44.9228 28.4424 50.602
CA 11.4017 -0.435056 53.815
CA 21.4444 26.3627 45.2423
CA 39.3703 19.9642 74.0933
CA 47.4169 17.7995 31.9334
CA 27.5965 22.8095 57.8057
CA 35.1447 29.1024 50.0626
CA 38.2265 6.3225 76.875
CA 26.3578 14.2805 49.7884
CA 48.9715 -3.81192 88.9006
CA 17.5051 10.2811 39.2185
CA 27.6898 5.77826 30.8717
CA 26.6142 25.9368 46.1194
CA 44.6558 6.99658 41.1932
CA 29.1817 13.7092 83.8642
CA 33.9266 8.59996 54.5685
CA 47.6515 1.66573 39.592
CA 11.2323 0.262835 64.3991
CA 42.702 14.7414 74.6919
CA 28.8119 0.304636 55.3429
CA 43.5962 17.0169 32.3154
CA 10.4208 9.04322 50.8562
CA 41.7774 2.46418 65.162
CA 37.6486 3.82366 60.9046
CA 7.49287 -0.490601 58.9214
CA 47.0068 -1.84367 47.8606
CA 16.4246 17.8771 55.0228
CA 42.6985 19.7195 33.0841
CA 31.2443 0.84415 31.9049
CA 30.3551 19.5296 64.1856
CA 16.2075 12.9965 49.9916
CA 36.0293 16.9385 45.5226
CA 34.0242 -3.03352 31.4069
CA 35.9828 -6.74383 54.379
CA 17.4742 15.5212 42.2456
CA 15.5247 10.3546 5.01703
CA 20.4005 6.46424 40.3258
CA 39.1942 14.5148 64.1797
CA 10.2913 17.0723 44.3693
CA 30.425 16.4179 77.8791
CA 37.9064 18.5737 77.2872
CA 43.2103 12.6838 54.4701
CA 45.5991 11.1389 35.3392
CA 27.873 17.5154 62.1719
CA 31.4939 27.1869 64.3587
CA 12.0033 11.1983 62.5244
CA 59.0831 20.0924 61.471
CA 28.1301 17.2822 81.4141
CA 29.147 23.3017 63.9096
CA 39.0886 13.9524 32.7607
CA 45.8631 12.0631 66.8706
CA 45.5621 2.33996 49.8851
CA 53.5145 12.1779 49.8371
CA 43.3034 17.7386 53.6982
CA 39.4899 6.83511 79.659
CA 36.8083 7.90921 76.7885
CA 61.0496 19.4666 70.3892
CA 58.4788 9.03657 49.9681
CA 31.4229 17.8927 84.634
CA 51.3497 31.1699 56.3313
CA 49.9029 6.06372 59.8706
CA 29.1272 -15.0498 47.7181
CA 42.6589 -0.61834 81.3111
CA 18.7718 9.16495 52.8129
CA 12.8118 20.9782 56.2674
CA 37.5616 5.45745 43.3871
CA 37.9156 27.1741 54.032
CA 9.29372 7.99749 59.7452
CA 60.8023 13.6768 52.2741
CA 34.8674 20.8574 69.8656
CA 40.1669 16.2569 83.7376
CA 33.9682 -1.66554 47.8258
CA 62.1462 7.57043 64.5524
CA 42.2242 29.6432 76.2098
CA 22.9181 -4.61925 46.4774
CA 16.242 24.0546 46.0578
CA 35.6296 -2.81455 34.2516
CA 47.0984 25.6602 48.7933
CA 50.022 -1.97278 61.7191
CA 33.9928 -6.68136 60.8377
CA 36.3497 19.4368 50.7399
CA 5.86778 18.359 62.8152
CA 26.529 14.1442 40.8705
CA 25.5448 22.7324 46.6886
CA 19.3533 13.1428 0.982735
CA 13.9116 10.6049 49.6944
CA 50.3204 0.674282 56.6752
CA 15.3576 15.2097 16.1897
CA 36.2919 13.1202 85.9666
CA 43.8607 0.54701 69.9133
CA 35.2007 7.51027 50.9568
CA 45.4429 21.844 46.1556
CA 25.9075 7.89396 34.3741
CA 9.42885 32.779 18.4439
CA 20.4993 -9.71334 48.9831
CA 40.8607 -0.48713 71.0355
CA 20.7539 19.277 54.5504
CA 35.3657 14.2875 38.3801
CA 37.8138 -9.78773 42.4313
CA 14.296 20.4136 39.3292
CA 8.31353 -3.05791 61.7364
CA 34.7726 -8.69232 40.6648
CA 27.1129 7.19982 40.0832
CA 39.8594 10.1879 51.1599
CA 38.2727 23.8615 41.9696
CA 42.1738 4.30867 59.8152
CA 36.5242 6.58598 71.3835
CA 33.0752 17.8179 34.7298
CA 25.5127 -1.2401 47.3301
CA 13.2923 9.84191 3.65831
CA 50.2873 5.23936 53.5604
CA 59.2669 12.0442 52.9443
CA 26.6439 15.738 38.9819
CA 33.8551 18.8647 73.9675
CA 41.2841 19.9751 74.5077
CA 29.0272 11.9119 61.4827
CA 66.3824 11.2515 58.495
CA 23.5802 30.6085 42.5169
CA 44.4052 -5.58487 72.2804
CA 42.3542 -2.91353 72.8354
CA 24.868 13.5126 47.8518
CA 62.6106 10.7985 57.8368
CA 38.1828 17.1978 73.2742
CA 34.3091 -4.07377 52.3041
CA 29.9601 13.7771 33.9917
CA 20.2348 -3.14779 48.6425
CA 44.7851 -2.12661 46.3455
CA 7.09635 -0.955651 61.9176
CA 23.304 -4.28406 67.3629
CA 47.1524 22.9038 60.1933
CA 24.5402 20.2379 40.4166
CA 40.8975 8.23215 56.7474
CA 40.3874 -3.51341 84.8964
CA 43.862 24.3944 40.7589
CA 22.0046 15.163 44.8708
CA 49.4363 15.3716 34.8206
CA 44.8394 13.1002 50.7943
CA 53.705 10.049 65.6418
CA 13.1311 17.2997 9.33113
CA 30.8577 8.61883 58.817
CA 46.8112 1.15114 82.6503
CA 51.7442 10.2714 60.2065
CA 48.0058 0.0330449 54.0266
CA 43.5591 25.692 56.2779
CA 39.5743 2.97491 71.1361
CA 67.4738 12.2169 60.1616
CA 15.2964 22.4723 23.8654
CA 17.2465 13.3326 61.1741
CA 32.01 1.75594 63.9895
CA 36.6074 17.2327 85.5918
CA 28.3813 24.5379 49.5711
CA 5.66356 1.27573 55.2382
CA 50.2865 19.3038 59.5363
CA 27.1863 16.8731 65.0356
CA 10.9525 -5.65964 52.5163
CA 35.453 18.2225 48.3361
CA 27.895 27.8539 49.6423
CA 42.8717 13.4443 69.287
CA 41.5681 20.0536 30.9853
CA 12.44 15.703 49.4826
CA 48.1896 27.8363 52.257
CA 22.7315 2.57931 35.6049
CA 10.7613 19.4673 59.4488
CA 13.1128 2.22859 61.2384
CA 39.5525 1.46572 35.0554
CA 25.9071 -2.73849 71.5371
CA 6.72676 0.9921 57.791
CA 6.93862 5.06014 56.3081
CA 35.6348 3.84326 41.2627
CA 39.2561 -7.04265 59.4842
CA 45.0431 -11.2125 52.5104
CA 53.7486 19.3942 56.772
CA 6.81667 14.7139 60.975
CA 23.592 7.32158 65.6798
CA 35.6328 22.9151 65.8933
CA 37.8593 23.4829 47.8329
CA 37.97 23.6067 72.7138
CA 51.0287 26.9174 55.6372
CA 34.204 0.878795 63.4086
CA 36.0515 -1.18035 32.7126
CA 55.5806 12.7975 49.0364
CA 15.5795 2.22551 57.3968
CA 58.5077 18.2179 61.2421
CA 44.6357 15.2112 67.6931
CA 45.3461 7.56721 55.3905
CA 52.609 16.1758 52.2981
CA 48.9559 0.817132 61.1885
CA 16.5412 24.4864 47.8195
CA 27.3901 2.73538 48.7087
CA 43.9467 4.1234 61.6768
CA 23.8982 18.4009 57.8513
CA 37.1231 20.6434 76.1252
CA 50.6474 -11.344 59.4916
CA 17.6011 11.0553 57.9811
CA 22.0489 18.2509 42.9567
CA 14.4785 14.3849 59.2365
CA 46.2534 14.156 78.8427
CA 24.7763 15.5359 35.1148
CA 37.4312 16.3344 62.8842
CA 22.6116 -8.20652 48.582
CA 23.4597 15.685 54.1333
CA 40.1599 28.1658 73.5779
CA 29.4373 5.04395 67.4986
CA 17.8275 -2.45841 53.9532
CA 15.8003 18.9146 31.9182
CA 21.7205 3.78816 48.735
CA 57.5301 -0.349047 83.8513
CA 14.3765 11.5842 3.61202
CA 44.6729 -1.17261 76.8607
CA 58.3868 8.03253 62.4954
CA 27.2261 23.8732 46.691
CA 35.9953 -9.98376 56.5266
CA 33.1782 6.24667 46.0115
CA 38.5948 10.7765 73.5818
CA 34.6354 -4.98774 54.9341
CA 44.4552 17.8292 30.9393
CA 54.6611 11.5331 61.8951
CA 44.1229 18.2257 49.7945
CA 24.3984 6.97014 52.1268
CA 20.3641 -3.05502 50.4707
CA 30.2927 -1.90054 35.388
CA 13.0741 28.4622 16.196
CA 35.5054 12.8507 53.5924
CA 5.346 16.7789 61.4746
CA 32.8659 23.0266 50.5938
CA 55.0596 12.4723 46.7799
CA 38.6524 13.2511 62.4263
CA 58.0834 18.686 66.1797
CA 24.9786 24.1995 36.3542
CA 46.2985 32.0501 54.4422
CA 46.703 -1.87236 84.8863
CA 9.84736 -5.20307 57.7789
CA 25.2283 11.7071 64.6199
CA 7.16486 15.8007 56.6816
CA 36.8401 26.3474 65.7829
CA 20.9767 -12.0971 52.3199
CA 17.8597 26.3289 15.4493
CA 65.4805 18.0742 69.4849
CA 45.3276 -1.59259 91.6666
CA 16.8072 -4.68552 54.6958
CA 38.6189 17.1706 84.8761
CA 41.5267 -9.89859 56.5602
CA 41.99 31.5987 48.9528
CA 30.1062 7.88093 51.144
CA 42.1958 8.61993 58.8338
CA 47.6351 -0.727947 73.3867
CA 23.4893 -5.72754 62.124
CA 43.6359 26.1216 44.8026
CA 52.1689 -0.947356 88.4713
CA 18.5411 19.3248 31.7152
CA 15.9658 17.7114 25.1844
CA 32.0482 -0.366444 43.1041
CA 34.1585 14.8919 58.7958
CA 20.2501 2.30338 49.0764
CA 19.7875 8.45315 58.3136
CA 20.7702 11.72 57.6281
CA 47.6999 -8.50661 56.6594
CA 42.4779 -3.46387 84.0789
CA 21.8859 27.7682 54.9643
CA 50.4925 13.7708 69.2284
CA 26.7608 0.351953 53.094
CA 25.9824 1.79938 50.771
CA 35.3646 8.12174 73.2982
CA 44.6076 1.26869 38.4003
CA 22.7513 0.788631 34.5293
CA 31.5496 20.1818 67.5527
CA 20.9325 -12.1064 45.7602
CA 53.7913 16.8251 65.3026
CA 20.6595 12.8987 59.8492
CA 65.2919 15.1944 59.3684
CA 25.3568 7.99866 39.6342
CA 36.8486 19.7419 60.3598
CA 17.5316 8.17688 45.6066
CA 33.5208 3.31649 68.2633
CA 25.3496 -1.64281 43.8298
CA 44.157 16.1422 51.1438
CA 40.3178 14.2501 31.4702
CA 9.71917 13.5347 4.06176
CA 9.81755 17.541 64.4742
CA 9.03638 17.7919 52.1812
CA 35.8756 -1.81325 39.2048
CA 35.9717 14.2339 36.0307
CA 29.9435 27.2919 43.812
CA 12.6144 13.4437 0.307703
CA 46.5835 12.0796 39.8079
CA 39.5596 23.7625 49.5072
CA 27.558 1.06388 35.162
CA 36.6235 3.03845 72.5744
CA 18.5611 20.7217 59.7091
