489

CA 48.8369 -2.06059 71.881
CA 43.6565 5.58048 82.7993
CA 47.6093 12.852 34.6142
CA 61.1774 11.0441 61.2855
CA 32.8134 5.14642 66.9862
CA 39.9024 24.5901 63.9502
CA 59.5312 6.87876 57.4639
CA 31.9162 14.4121 48.7379
CA 39.1383 2.74448 50.5854
CA 17.0327 20.949 45.6873
CA 17.1533 6.92383 41.7603
CA 11.9233 -5.08366 61.936
CA 27.6685 1.68116 60.892
CA 12.2587 13.0103 60.6297
CA 27.0499 20.5014 52.6993
CA 27.622 14.4511 34.0485
CA 34.6807 -1.86899 57.0201
CA 20.6644 30.1947 39.7601
CA 44.0593 10.5311 43.3581
CA 4.36362 3.85635 58.9336
CA 42.7746 0.538618 72.0239
CA 11.7514 7.9885 3.93016
CA 27.1995 12.3735 44.7397
CA 15.0107 16.061 44.1771
CA 41.3958 11.0419 68.5506
CA 12.1978 14.727 47.4107
CA 46.76 -3.69518 77.1374
CA 61.7571 6.23001 61.1
CA 41.9252 2.85466 37.4372
CA 48.8487 28.2622 47.8554
CA 8.90859 18.8821 57.1824
CA 24.5785 5.7648 34.7104
CA 19.7772 23.309 62.9547
CA 47.964 4.99573 45.3184
CA 46.809 10.463 43.2239
CA 29.5347 1.58799 48.1404
CA 19.4029 23.0569 19.8145
CA 16.5922 22.8319 17.6044
CA 22.7193 -11.2433 47.6307
CA 20.3753 1.166 56.7294
CA 16.2262 17.169 49.2217
CA 44.4962 13.7053 63.0044
CA 43.7495 0.329138 75.5348
CA 56.0302 3.15163 44.3988
CA 54.833 8.03078 64.4797
CA 41.8082 -6.13453 45.9969
CA 18.1814 -4.8695 56.0215
CA 24.41 11.205 56.2983
CA 43.506 -3.74838 48.2176
CA 43.5834 15.7362 79.8503
CA 40.0481 21.3158 45.8467
CA 40.4489 2.6573 30.9685
CA 46.2998 6.11672 89.8112
CA 47.3142 -8.38943 60.7035
CA 39.9076 18.4469 52.9154
CA 36.6264 18.4293 75.0763
CA 38.9065 25.8315 74.509
CA 53.3174 16.9517 60.4976
CA 38.3751 17.4875 32.1527
CA 31.4291 13.5873 37.3849
CA 14.2874 7.84502 59.1622
CA 54.8206 13.5217 51.0857
CA 51.5629 8.46149 56.1648
CA 41.5573 4.63713 28.5396
CA 46.0607 13.8871 81.7445
CA 43.6732 0.951042 83.5191
CA 16.396 20.8336 59.2873
CA 12.1704 0.92707 60.3021
CA 42.2204 4.86307 55.8364
CA 25.7802 17.028 42.8946
CA 45.6235 0.41869 78.6697
CA 32.2141 21.4077 65.4509
CA 42.9713 -1.07112 68.9772
CA 37.5808 6.86092 69.4946
CA 48.5732 3.29831 49.4297
CA 33.2961 -0.121248 57.6729
CA 51.2104 10.0099 57.7486
CA 45.4521 -6.25162 60.4629
CA 39.3124 22.4423 65.386
CA 37.6774 -4.2173 83.794
CA 42.2704 26.2015 42.6742
CA 20.418 21.4694 36.5959
CA 34.5411 27.6292 43.1156
CA 20.7692 -2.10319 59.1527
CA 22.004 -5.66189 66
CA 57.1984 20.8205 65.0752
CA 5.25546 13.9266 3.54082
CA 55.3545 11.653 50.5611
CA 14.9705 6.08783 61.8182
CA 52.6805 13.9331 31.4112
CA 17.1284 12.9872 1.79097
CA 34.6805 -0.535898 47.2435
CA 42.0498 11.87 62.5609
CA 48.2934 -0.839091 86.4163
CA 15.1918 5.91765 39.1099
CA 16.5721 5.3377 37.9799
CA 11.6445 13.6759 6.12221
CA 60.8719 8.55063 64.8447
CA 57.053 5.85107 47.2467
CA 31.3896 9.23342 40.5022
CA 26.2891 -3.91557 58.3371
CA 41.204 -7.84201 43.6136
CA 34.3332 10.5974 58.8338
CA 28.6114 12.5416 66.7807
CA 47.8173 2.53061 87.9155
CA 34.1474 14.6158 34.6343
CA 24.457 12.7652 67.5327
CA 30.6279 6.69586 56.1113
CA 25.317 16.1276 54.0771
CA 42.5956 14.5973 63.4898
CA 43.9888 0.472823 46.8423
CA 43.0353 -0.349248 63.0722
CA 35.8704 8.79687 54.5271
CA 42.169 16.7637 40.7996
CA 26.6629 3.4392 56.741
CA 42.9682 8.35705 66.4086
CA 10.9412 30.0287 19.646
CA 51.7432 1.10101 85.3359
CA 43.7644 19.3712 52.1825
CA 21.0792 28.2762 44.77
CA 46.1958 8.16976 40.0549
CA 48.1011 18.5794 62.4508
CA 40.3213 9.19228 79.7324
CA 23.0166 3.96946 61.5423
CA 39.2042 16.4732 35.5942
CA 14.8809 15.3217 40.4556
CA 54.2997 15.5628 59.6845
CA 15.6968 20.9233 54.2962
CA 13.3128 14.4615 16.5563
CA 6.37108 20.8573 56.9839
CA 49.6596 25.6543 48.2096
CA 43.9563 -6.64876 51.8223
CA 11.3554 1.33712 54.7185
CA 25.3376 22.707 43.3754
CA 35.1388 -0.377962 54.1373
CA 12.4091 11.7784 2.08695
CA 22.819 10.5153 36.9756
CA 22.6122 17.3729 35.828
CA 40.7407 -5.59225 67.0449
CA 34.3053 0.317766 67.5356
CA 30.3888 0.909304 63.1859
CA 40.291 19.7337 88.389
CA 15.8674 1.44231 53.1995
CA 58.3335 16.8857 50.4134
CA 31.5021 -0.643729 48.2306
CA 22.9315 -10.7528 53.522
CA 44.9164 5.72867 42.985
CA 42.921 -8.42306 63.9457
CA 42.6075 -13.668 66.9269
CA 42.9087 14.9732 38.934
CA 21.7592 3.18485 32.8134
CA 61.6023 16.8433 64.2717
CA 56.5608 14.7916 69.7118
CA 33.8673 12.875 72.3801
CA 20.8617 -13.0289 46.937
CA 40.6138 -1.21525 36.4659
CA 54.3474 6.28953 46.5315
CA 24.9855 -13.7632 46.5853
CA 23.5425 19.1618 41.5829
CA 45.9311 20.1438 58.6775
CA 41.8542 26.0325 61.5005
CA 20.278 8.47223 48.8058
CA 33.8786 6.36388 37.5004
CA 25.8399 21.625 60.9731
CA 34.8101 16.3789 48.7111
CA 38.0174 22.3042 60.7923
CA 23.6352 16.4564 40.0631
CA 51.5575 -2.77 84.7745
CA 25.9129 4.76925 36.3977
CA 50.845 13.3304 58.5556
CA 44.0774 -9.93435 46.0146
CA 47.7618 18.2568 66.3966
CA 43.4407 -4.87787 57.4551
CA 19.0637 -9.71752 55.2352
CA 63.0326 11.2989 56.0207
CA 44.1449 34.3933 51.8789
CA 15.6609 11.6362 44.5893
CA 18.3605 -13.2917 51.0818
CA 39.405 -10.7751 66.5893
CA 58.01 7.14189 54.2648
CA 19.8561 22.8418 55.2809
CA 34.9229 3.40732 54.7824
CA 16.3121 17.4226 30.5935
CA 31.8292 27.8111 51.1639
CA 26.6584 17.2232 54.7337
CA 33.7644 31.8548 46.6623
CA 48.0717 15.7488 30.5852
CA 39.9084 5.32853 33.7313
CA 14.4511 19.3299 14.557
CA 22.5115 6.57339 33.7931
CA 38.6974 -7.2459 57.712
CA 15.0944 7.50602 2.994
CA 12.484 20.4101 38.8932
CA 19.1617 11.6273 4.91211
CA 16.7399 13.3884 44.7661
CA 41.295 0.04662 64.9105
CA 23.4486 7.13155 44.5843
CA 48.9816 13.8 50.5478
CA 51.7384 1.72151 87.0567
CA 20.0098 24.9754 61.6576
CA 22.7837 13.7346 35.807
CA 11.4017 -0.435056 53.815
CA 21.4444 26.3627 45.2423
CA 39.3703 19.9642 74.0933
CA 47.4169 17.7995 31.9334
CA 27.5965 22.8095 57.8057
CA 24.7027 -13.1778 56.2368
CA 38.2265 6.3225 76.875
CA 15.9403 -1.4813 55.3892
CA 29.9511 -1.32255 31.971
CA 18.8193 15.1761 57.8899
CA 45.5154 28.003 48.9408
CA 26.6142 25.9368 46.1194
CA 38.4973 -8.41706 54.5085
CA 53.1018 18.8811 65.734
CA 33.9266 8.59996 54.5685
CA 47.201 5.51682 55.7724
CA 11.2323 0.262835 64.3991
CA 42.702 14.7414 74.6919
CA 28.8119 0.304636 55.3429
CA 43.5962 17.0169 32.3154
CA 43.1937 -2.38761 42.2268
CA 13.803 17.9319 34.794
CA 47.9905 4.19022 32.5
CA 7.49287 -0.490601 58.9214
CA 47.0068 -1.84367 47.8606
CA 16.4246 17.8771 55.0228
CA 7.57733 -3.40869 64.0356
CA 32.0972 -1.92234 32.7482
CA 30.3551 19.5296 64.1856
CA 16.2075 12.9965 49.9916
CA 36.0293 16.9385 45.5226
CA 12.886 24.5509 49.7392
CA 35.9828 -6.74383 54.379
CA 45.4639 1.91818 41.6606
CA 15.5247 10.3546 5.01703
CA 25.6419 -15.4409 55.3234
CA 25.4758 18.7079 48.1856
CA 9.09972 14.0393 53.9829
CA 42.9362 -8.79578 66.682
CA 48.1597 -5.81691 62.662
CA 43.2103 12.6838 54.4701
CA 25.0973 19.0736 55.4042
CA 44.6819 2.20273 48.4534
CA 31.4939 27.1869 64.3587
CA 12.0033 11.1983 62.5244
CA 40.5566 -12.646 65.4014
CA 17.4011 -3.68619 59.9849
CA 29.147 23.3017 63.9096
CA 54.8282 4.6335 84.4053
CA 10.936 13.1987 51.9549
CA 27.7181 17.2861 36.8872
CA 34.516 2.10437 49.2007
CA 43.3034 17.7386 53.6982
CA 40.2235 8.47521 48.1987
CA 39.61 14.2339 55.3442
CA 61.0496 19.4666 70.3892
CA 34.8874 10.8015 74.164
CA 31.4229 17.8927 84.634
CA 48.253 29.6308 50.681
CA 25.2743 -10.6865 51.1487
CA 34.7924 10.6241 39.8439
CA 42.6589 -0.61834 81.3111
CA 27.1849 3.82019 47.8207
CA 35.1032 25.5491 68.6798
CA 21.0983 4.83665 33.0978
CA 49.8101 1.58509 35.0669
CA 30.7261 26.3237 62.8194
CA 60.8023 13.6768 52.2741
CA 53.7246 1.70855 45.8054
CA 40.1669 16.2569 83.7376
CA 38.3521 -5.21893 49.1188
CA 47.7196 21.2553 32.1157
CA 51.825 0.301626 51.9656
CA 22.9181 -4.61925 46.4774
CA 16.242 24.0546 46.0578
CA 35.6296 -2.81455 34.2516
CA 42.4608 6.57666 43.5007
CA 37.7554 -12.8822 42.3307
CA 41.9485 37.1393 51.6524
CA 36.3497 19.4368 50.7399
CA 47.8073 33.1695 51.443
CA 37.9875 21.2663 66.6064
CA 25.5448 22.7324 46.6886
CA 19.3533 13.1428 0.982735
CA 34.681 25.3673 47.6501
CA 50.3204 0.674282 56.6752
CA 15.7133 19.2209 19.1946
CA 36.2919 13.1202 85.9666
CA 43.8607 0.54701 69.9133
CA 35.2007 7.51027 50.9568
CA 45.4429 21.844 46.1556
CA 47.3427 2.27922 76.2467
CA 9.42885 32.779 18.4439
CA 20.4162 5.85019 49.586
CA 40.155 10.5647 81.0409
CA 26.8586 16.3465 52.2644
CA 35.2435 -5.34487 55.4356
CA 23.4907 4.11654 31.6767
CA 14.296 20.4136 39.3292
CA 41.1271 11.2274 77.1922
CA 58.3144 13.3304 51.6746
CA 27.1129 7.19982 40.0832
CA 39.8594 10.1879 51.1599
CA 42.0648 -9.4459 68.5698
CA 42.8609 29.4453 48.465
CA 57.5256 11.2205 72.9128
CA 29.8906 15.0588 32.9418
CA 10.3167 21.121 63.352
CA 13.2923 9.84191 3.65831
CA 50.2873 5.23936 53.5604
CA 21.2665 23.4332 16.5182
CA 18.5161 6.55743 50.9845
CA 33.8551 18.8647 73.9675
CA 41.2841 19.9751 74.5077
CA 46.4889 -2.55834 49.5629
CA 30.6838 12.9817 35.517
CA 43.6638 30.1746 75.0571
CA 44.4052 -5.58487 72.2804
CA 42.3542 -2.91353 72.8354
CA 24.868 13.5126 47.8518
CA 62.6106 10.7985 57.8368
CA 38.1828 17.1978 73.2742
CA 15.3001 4.61563 59.1615
CA 43.1143 23.3099 66.2977
CA 22.8116 17.5511 45.7715
CA 17.0476 -14.5596 49.8572
CA 47.3901 34.2801 53.3566
CA 27.27 21.4477 43.0017
CA 55.8828 8.81536 48.2478
CA 44.8306 25.2688 49.4948
CA 33.7588 10.0297 36.0254
CA 20.9524 21.1179 20.7052
CA 26.3364 -14.9192 47.8924
CA 42.3581 20.3545 90.4898
CA 49.4363 15.3716 34.8206
CA 44.8394 13.1002 50.7943
CA 36.4533 9.1377 76.1282
CA 13.1311 17.2997 9.33113
CA 51.8548 13.1683 64.4818
CA 15.0692 9.94267 63.1928
CA 51.7442 10.2714 60.2065
CA 47.3064 15.6673 52.9581
CA 40.9491 10.3844 54.1108
CA 20.3829 -8.05986 49.7808
CA 25.2374 9.50779 62.5649
CA 15.2964 22.4723 23.8654
CA 17.2465 13.3326 61.1741
CA 32.01 1.75594 63.9895
CA 36.6074 17.2327 85.5918
CA 28.3813 24.5379 49.5711
CA 26.771 12.8519 42.8455
CA 11.4423 18.6747 55.2721
CA 27.1863 16.8731 65.0356
CA 30.8052 -4.12146 35.054
CA 23.5367 11.141 69.2341
CA 56.6571 22.3276 69.3586
CA 45.7321 9.91054 55.511
CA 44.1543 -7.25472 55.7458
CA 28.4877 8.50512 67.27
CA 48.1896 27.8363 52.257
CA 37.9753 29.1164 60.7138
CA 10.7613 19.4673 59.4488
CA 13.1128 2.22859 61.2384
CA 39.5525 1.46572 35.0554
CA 39.1037 10.8903 26.804
CA 38.0958 7.16249 34.6475
CA 18.0807 25.3347 49.0508
CA 35.6348 3.84326 41.2627
CA 39.2561 -7.04265 59.4842
CA 45.0431 -11.2125 52.5104
CA 53.7486 19.3942 56.772
CA 22.1801 13.1384 37.7284
CA 59.8813 8.58555 58.2671
CA 44.2687 2.22731 32.8022
CA 36.8843 10.4573 60.3887
CA 46.8819 -3.6027 73.3906
CA 51.0287 26.9174 55.6372
CA 34.204 0.878795 63.4086
CA 56.5974 12.2747 53.6872
CA 30.7913 5.68629 50.8218
CA 38.2464 24.5578 75.9848
CA 15.4859 -7.01742 51.3185
CA 42.3538 -13.0625 45.9317
CA 45.3461 7.56721 55.3905
CA 22.9802 26.8589 48.7962
CA 39.6854 13.2051 60.824
CA 26.7295 -19.4301 48.6562
CA 18.1008 9.82536 36.3567
CA 43.9467 4.1234 61.6768
CA 23.8982 18.4009 57.8513
CA 37.1231 20.6434 76.1252
CA 40.7173 16.0981 46.2896
CA 17.6011 11.0553 57.9811
CA 32.9331 1.17315 50.1086
CA 11.9761 18.2784 47.145
CA 30.5749 22.7967 44.5914
CA 43.3268 1.36405 58.8151
CA 37.4312 16.3344 62.8842
CA 31.7678 22.3987 86.2566
CA 23.4597 15.685 54.1333
CA 40.1599 28.1658 73.5779
CA 32.1179 7.6169 42.0818
CA 21.9687 12.6261 65.5214
CA 65.2434 19.9683 67.6144
CA 21.7205 3.78816 48.735
CA 34.5531 23.3031 84.8358
CA 14.3765 11.5842 3.61202
CA 17.9384 20.8206 38.1138
CA 20.3594 14.3866 65.6151
CA 20.95 -14.8074 51.09
CA 40.6029 18.1745 87.0858
CA 47.1895 1.60039 38.7132
CA 37.2039 11.1426 69.7496
CA 40.8256 26.6846 66.1617
CA 44.4552 17.8292 30.9393
CA 30.9033 15.5011 47.2553
CA 39.0416 7.17954 62.8081
CA 24.3984 6.97014 52.1268
CA 20.3641 -3.05502 50.4707
CA 46.6596 24.6257 59.5019
CA 13.0741 28.4622 16.196
CA 35.5054 12.8507 53.5924
CA 19.8086 23.3189 40.557
CA 32.8659 23.0266 50.5938
CA 55.0596 12.4723 46.7799
CA 38.6524 13.2511 62.4263
CA 58.0834 18.686 66.1797
CA 24.9786 24.1995 36.3542
CA 52.5726 4.03219 47.7898
CA 46.703 -1.87236 84.8863
CA 58.2695 12.8983 66.5476
CA 33.5723 19.9303 62.6769
CA 7.16486 15.8007 56.6816
CA 36.8401 26.3474 65.7829
CA 20.631 -9.59948 52.2784
CA 17.8597 26.3289 15.4493
CA 33.2766 -1.09778 69.8991
CA 8.11824 14.7734 55.3301
CA 16.8072 -4.68552 54.6958
CA 38.6189 17.1706 84.8761
CA 41.1503 9.32258 28.8998
CA 44.0626 15.5328 87.5369
CA 36.9972 15.8402 54.1573
CA 44.0393 15.4445 58.5883
CA 13.7355 18.9096 43.9881
CA 23.4893 -5.72754 62.124
CA 19.228 1.44489 46.5617
CA 45.749 17.0793 33.6704
CA 18.5411 19.3248 31.7152
CA 15.9658 17.7114 25.1844
CA 32.0482 -0.366444 43.1041
CA 34.1585 14.8919 58.7958
CA 20.2501 2.30338 49.0764
CA 13.299 6.57778 56.1457
CA 26.4461 13.3981 67.736
CA 45.6276 11.7381 56.4223
CA 42.4779 -3.46387 84.0789
CA 40.1115 23.3837 43.8857
CA 50.4925 13.7708 69.2284
CA 38.8286 25.3313 51.0898
CA 25.9824 1.79938 50.771
CA 35.3646 8.12174 73.2982
CA 36.0783 20.9771 84.2532
CA 52.3487 4.40758 66.1181
CA 58.0602 23.5752 69.4044
CA 52.9025 3.57083 44.6398
CA 53.7913 16.8251 65.3026
CA 32.1673 10.4063 60.0637
CA 65.2919 15.1944 59.3684
CA 25.3568 7.99866 39.6342
CA 60.841 8.85738 51.6407
CA 34.8452 21.0604 76.6744
CA 33.5208 3.31649 68.2633
CA 25.5393 12.754 65.6677
CA 39.839 25.5701 42.0966
CA 43.2163 -4.68159 46.6651
CA 9.71917 13.5347 4.06176
CA 29.6202 12.9197 60.5545
CA 33.9728 27.0977 50.6557
CA 35.8756 -1.81325 39.2048
CA 27.1781 26.4029 35.2633
CA 51.9056 0.246798 82.8311
CA 12.6144 13.4437 0.307703
CA 46.5835 12.0796 39.8079
CA 38.2231 -8.61518 45.2287
CA 27.4932 -14.191 44.4692
CA 36.6235 3.03845 72.5744
CA 46.5113 -0.431086 36.7187
