489

CA 18.3737 8.61509 61.5549
CA 43.6565 5.58048 82.7993
CA 47.6093 12.852 34.6142
CA 61.1774 11.0441 61.2855
CA 32.8134 5.14642 66.9862
CA 30.9878 2.6895 48.3972
CA 59.5312 6.87876 57.4639
CA 31.9162 14.4121 48.7379
CA 38.3745 27.7864 58.9123
CA 12.7944 0.972661 68.174
CA 40.0624 17.7347 82.046
CA 54.4059 0.10039 48.7026
CA 38.6138 25.7781 64.3319
CA 52.9886 4.41244 37.7197
CA 56.5477 15.6326 50.4929
CA 5.71692 14.192 55.1223
CA 34.6807 -1.86899 57.0201
CA 20.6644 30.1947 39.7601
CA 44.0593 10.5311 43.3581
CA 60.8965 3.66807 65.5881
CA 28.1365 -9.5349 46.5889
CA 14.6398 13.8825 2.40487
CA 27.1995 12.3735 44.7397
CA 15.0107 16.061 44.1771
CA 42.2297 8.84568 57.764
CA 35.5135 -2.98037 48.62
CA 31.3383 17.8768 82.496
CA 29.8208 -1.35006 47.3103
CA 17.9347 -13.1225 48.8851
CA 43.1781 -12.3359 47.9201
CA 32.3665 18.6892 45.4379
CA 24.5785 5.7648 34.7104
CA 55.5842 15.467 52.1089
CA 32.0153 25.694 65.149
CA 23.7498 14.8736 39.0378
CA 29.5347 1.58799 48.1404
CA 19.4029 23.0569 19.8145
CA 16.5922 22.8319 17.6044
CA 22.7193 -11.2433 47.6307
CA 30.1266 22.5661 76.6652
CA 16.2262 17.169 49.2217
CA 44.4962 13.7053 63.0044
CA 43.7495 0.329138 75.5348
CA 34.7149 9.67063 43.1771
CA 36.0507 -5.58841 49.2537
CA 41.8082 -6.13453 45.9969
CA 45.859 14.1312 48.0583
CA 24.41 11.205 56.2983
CA 60.2127 26.3412 67.237
CA 42.4445 2.37333 61.5984
CA 40.0481 21.3158 45.8467
CA 40.4489 2.6573 30.9685
CA 28.6169 10.6744 67.0152
CA 44.1342 19.9917 80.1215
CA 29.4318 19.0616 51.4835
CA 36.6264 18.4293 75.0763
CA 19.9044 14.154 53.7468
CA 53.3174 16.9517 60.4976
CA 51.4084 29.4282 49.3737
CA 31.4291 13.5873 37.3849
CA 47.0763 16.7936 38.5897
CA 54.8206 13.5217 51.0857
CA 51.5629 8.46149 56.1648
CA 35.3675 6.70971 33.9885
CA 46.0607 13.8871 81.7445
CA 43.6732 0.951042 83.5191
CA 47.1086 -9.83296 55.9263
CA 12.1704 0.92707 60.3021
CA 41.2518 -2.35779 47.7344
CA 25.7802 17.028 42.8946
CA 39.7666 9.23728 66.4758
CA 57.5717 23.0126 71.2078
CA 42.9713 -1.07112 68.9772
CA 50.001 11.3024 53.2606
CA 23.3643 16.46 34.3982
CA 33.2961 -0.121248 57.6729
CA 37.841 20.9463 33.8601
CA 38.0479 20.5988 72.1858
CA 58.7459 10.6433 60.4746
CA 18.6679 13.0016 46.0753
CA 24.9377 26.6972 42.0515
CA 20.418 21.4694 36.5959
CA 34.5411 27.6292 43.1156
CA 48.5753 6.08268 53.4648
CA 38.2972 23.9091 54.4722
CA 57.1984 20.8205 65.0752
CA 5.25546 13.9266 3.54082
CA 46.3676 -1.23053 78.3831
CA 29.7377 19.7988 66.6656
CA 19.8621 21.0748 27.6204
CA 26.1317 23.5582 75.5978
CA 15.1452 15.6275 61.9222
CA 35.8074 13.5355 80.9661
CA 12.6186 22.6393 50.967
CA 15.1918 5.91765 39.1099
CA 16.5721 5.3377 37.9799
CA 11.6445 13.6759 6.12221
CA 60.8719 8.55063 64.8447
CA 57.053 5.85107 47.2467
CA 31.3896 9.23342 40.5022
CA 41.9268 10.5277 58.9119
CA 48.8607 20.4357 42.3036
CA 52.6836 15.759 50.1348
CA 17.4254 11.793 56.1703
CA 35.3578 28.3927 64.9177
CA 41.6564 -3.52808 74.6339
CA 24.457 12.7652 67.5327
CA 26.4678 -20.7299 46.6509
CA 25.317 16.1276 54.0771
CA 35.8096 12.3538 87.2687
CA 42.9866 4.70491 34.8006
CA 43.0353 -0.349248 63.0722
CA 48.6298 22.7367 30.9331
CA 42.169 16.7637 40.7996
CA 26.6629 3.4392 56.741
CA 41.6345 5.08623 66.7824
CA 10.9412 30.0287 19.646
CA 51.7432 1.10101 85.3359
CA 40.9405 13.394 53.2233
CA 21.0792 28.2762 44.77
CA 27.9631 10.721 39.1741
CA 11.8445 5.59846 62.7348
CA 40.3213 9.19228 79.7324
CA 45.3251 16.853 84.9183
CA 39.2042 16.4732 35.5942
CA 36.2792 23.5956 83.6009
CA 54.2997 15.5628 59.6845
CA 46.6611 -9.69011 46.0166
CA 13.3128 14.4615 16.5563
CA 43.0784 36.0775 49.7142
CA 49.6596 25.6543 48.2096
CA 39.3056 16.2776 40.0159
CA 11.3554 1.33712 54.7185
CA 25.3376 22.707 43.3754
CA 35.1388 -0.377962 54.1373
CA 12.4091 11.7784 2.08695
CA 15.6522 13.2357 54.0634
CA 22.6122 17.3729 35.828
CA 40.7407 -5.59225 67.0449
CA 34.3053 0.317766 67.5356
CA 48.9935 23.7659 44.7418
CA 40.291 19.7337 88.389
CA 5.25073 19.7695 53.2547
CA 58.3335 16.8857 50.4134
CA 60.6561 6.37034 53.5035
CA 38.594 9.74088 75.1767
CA 44.9164 5.72867 42.985
CA 42.921 -8.42306 63.9457
CA 19.7093 -7.7763 56.5223
CA 42.9087 14.9732 38.934
CA 31.1946 23.548 60.1826
CA 61.6023 16.8433 64.2717
CA 47.4961 2.43083 36.8967
CA 33.8673 12.875 72.3801
CA 20.8617 -13.0289 46.937
CA 8.0762 3.18278 58.6235
CA 54.3474 6.28953 46.5315
CA 9.68898 18.0505 55.6906
CA 36.031 -0.530167 51.169
CA 45.9311 20.1438 58.6775
CA 41.8542 26.0325 61.5005
CA 47.86 -4.76686 43.9786
CA 46.1777 18.1424 31.4268
CA 45.0819 1.92753 38.2627
CA 42.2091 21.5987 49.4364
CA 38.933 18.91 40.0485
CA 23.6352 16.4564 40.0631
CA 44.5019 -9.15283 65.7253
CA 40.987 21.9695 47.5552
CA 50.845 13.3304 58.5556
CA 42.5319 -6.06473 56.2204
CA 47.7618 18.2568 66.3966
CA 34.3267 1.5283 45.0004
CA 43.4569 -0.220229 31.9522
CA 63.0326 11.2989 56.0207
CA 44.1449 34.3933 51.8789
CA 15.8103 9.55136 42.941
CA 18.3605 -13.2917 51.0818
CA 21.437 6.15113 43.7837
CA 55.9307 12.0377 61.0347
CA 44.5783 19.8954 36.94
CA 34.9229 3.40732 54.7824
CA 16.3121 17.4226 30.5935
CA 35.3358 23.0455 64.7428
CA 26.6584 17.2232 54.7337
CA 33.7644 31.8548 46.6623
CA 37.1504 -6.4547 56.5088
CA 59.5104 20.7022 66.8109
CA 14.4511 19.3299 14.557
CA 22.5115 6.57339 33.7931
CA 32.3465 10.9594 34.3225
CA 15.0944 7.50602 2.994
CA 39.8144 -8.6422 58.6005
CA 19.1617 11.6273 4.91211
CA 16.7399 13.3884 44.7661
CA 42.5092 19.185 35.4883
CA 23.4486 7.13155 44.5843
CA 48.3073 -11.0105 44.7915
CA 22.8246 19.0667 34.8011
CA 28.9415 27.0465 42.7945
CA 24.4805 18.0196 40.7745
CA 41.8056 24.7495 33.7265
CA 32.924 34.7698 48.3869
CA 7.01727 1.14509 60.1091
CA 47.1043 22.2078 91.3144
CA 28.9833 16.4989 67.6345
CA 39.298 19.3992 69.6848
CA 48.8215 3.62975 54.5978
CA 15.9403 -1.4813 55.3892
CA 29.9511 -1.32255 31.971
CA 21.5159 -4.44866 53.3499
CA 40.4788 8.9603 33.6215
CA 26.6142 25.9368 46.1194
CA 41.5724 -4.55514 42.7997
CA 51.1683 19.1543 44.7511
CA 33.9266 8.59996 54.5685
CA 15.0446 -14.8501 49.8198
CA 11.2323 0.262835 64.3991
CA 33.3007 16.5392 70.3236
CA 28.8119 0.304636 55.3429
CA 43.5962 17.0169 32.3154
CA 7.43197 -1.89864 60.816
CA 17.3019 23.5957 43.1093
CA 46.7507 5.85718 51.8582
CA 34.2383 2.83056 70.2767
CA 16.3976 11.9716 49.7139
CA 27.1469 5.40282 44.3606
CA 7.57733 -3.40869 64.0356
CA 32.0972 -1.92234 32.7482
CA 38.9915 22.5163 72.4571
CA 22.4955 10.3329 60.6734
CA 36.0293 16.9385 45.5226
CA 12.886 24.5509 49.7392
CA 36.6252 16.5463 33.1092
CA 55.9335 25.3877 69.5158
CA 15.5247 10.3546 5.01703
CA 27.0275 2.24515 67.3374
CA 25.4758 18.7079 48.1856
CA 17.8114 21.964 34.0208
CA 41.4551 28.5617 58.0757
CA 29.4731 26.0618 80.8697
CA 24.2687 10.2293 36.8115
CA 25.0973 19.0736 55.4042
CA 44.6819 2.20273 48.4534
CA 16.9872 6.92213 53.5836
CA 12.0033 11.1983 62.5244
CA 22.533 18.6449 55.8369
CA 17.4011 -3.68619 59.9849
CA 41.7952 32.1428 59.7053
CA 48.2836 -4.81037 75.688
CA 10.936 13.1987 51.9549
CA 27.7181 17.2861 36.8872
CA 34.516 2.10437 49.2007
CA 39.6637 -2.98418 64.7943
CA 34.4717 11.1838 50.9176
CA 16.3856 20.139 38.9237
CA 61.0496 19.4666 70.3892
CA 59.4821 7.52928 45.5597
CA 11.4559 20.8769 61.7666
CA 48.253 29.6308 50.681
CA 28.7337 23.1035 65.2401
CA 39.9558 10.4997 72.4013
CA 42.6589 -0.61834 81.3111
CA 22.5831 10.2697 64.9487
CA 35.1032 25.5491 68.6798
CA 4.35928 0.905707 62.2989
CA 49.8101 1.58509 35.0669
CA 50.8045 7.85624 47.9244
CA 23.5263 6.88758 63.945
CA 22.1902 25.9536 43.0286
CA 40.1669 16.2569 83.7376
CA 37.1066 14.815 36.8579
CA 47.7196 21.2553 32.1157
CA 23.9484 14.099 51.5701
CA 45.8784 -3.10043 64.2358
CA 42.1804 38.3416 51.8227
CA 35.6296 -2.81455 34.2516
CA 42.4608 6.57666 43.5007
CA 18.6918 -15.9003 51.9466
CA 23.8336 9.55508 66.1188
CA 22.0125 25.5795 52.5581
CA 47.8073 33.1695 51.443
CA 37.9875 21.2663 66.6064
CA 25.5448 22.7324 46.6886
CA 19.3533 13.1428 0.982735
CA 40.3613 13.1741 75.6466
CA 10.5224 0.407595 59.2029
CA 15.7133 19.2209 19.1946
CA 45.6982 0.587138 67.0856
CA 60.9714 8.45594 61.7967
CA 35.2007 7.51027 50.9568
CA 45.4429 21.844 46.1556
CA 47.3427 2.27922 76.2467
CA 9.42885 32.779 18.4439
CA 20.4162 5.85019 49.586
CA 40.155 10.5647 81.0409
CA 26.8586 16.3465 52.2644
CA 35.2435 -5.34487 55.4356
CA 50.1052 18.1724 35.0226
CA 28.4871 11.6813 63.8295
CA 47.0152 -0.0823109 83.8702
CA 11.1597 10.4262 45.6546
CA 35.6971 0.842202 32.4619
CA 39.8594 10.1879 51.1599
CA 41.7116 1.02678 46.5791
CA 5.90478 15.5222 53.3664
CA 62.3739 14.5162 61.8103
CA 36.9966 34.5299 48.6034
CA 60.4476 17.1065 74.2573
CA 13.2923 9.84191 3.65831
CA 43.8812 1.31448 62.7528
CA 50.3269 1.36673 82.4043
CA 18.5161 6.55743 50.9845
CA 33.8551 18.8647 73.9675
CA 41.2841 19.9751 74.5077
CA 44.8663 -5.18401 40.6598
CA 41.008 23.677 45.9122
CA 62.0823 6.13291 66.6213
CA 42.8379 6.18699 39.8095
CA 42.3542 -2.91353 72.8354
CA 24.868 13.5126 47.8518
CA 21.2664 -16.3144 49.3664
CA 31.4137 16.9701 70.8704
CA 15.3001 4.61563 59.1615
CA 43.1143 23.3099 66.2977
CA 22.8116 17.5511 45.7715
CA 40.0407 8.78253 30.4968
CA 39.0054 1.46775 71.0947
CA 43.7032 9.95752 81.4
CA 52.0546 25.8044 51.5469
CA 44.8306 25.2688 49.4948
CA 6.18365 10.6774 55.1594
CA 32.5656 14.2727 84.4964
CA 14.6631 21.0278 62.7352
CA 42.3581 20.3545 90.4898
CA 49.4363 15.3716 34.8206
CA 44.8394 13.1002 50.7943
CA 31.3461 23.0888 82.2444
CA 13.1311 17.2997 9.33113
CA 51.8548 13.1683 64.4818
CA 15.0692 9.94267 63.1928
CA 51.7442 10.2714 60.2065
CA 47.3064 15.6673 52.9581
CA 33.9379 9.54041 68.8281
CA 20.3829 -8.05986 49.7808
CA 25.2374 9.50779 62.5649
CA 15.2964 22.4723 23.8654
CA 46.0273 15.9617 58.8705
CA 32.01 1.75594 63.9895
CA 13.9543 11.76 46.6089
CA 28.3813 24.5379 49.5711
CA 57.4529 13.2242 47.6349
CA 54.5923 20.5649 68.7792
CA 27.1863 16.8731 65.0356
CA 45.9136 19.8984 89.5912
CA 36.9513 11.9333 51.1476
CA 49.6571 3.87721 78.0331
CA 42.4865 6.72318 61.9301
CA 44.1543 -7.25472 55.7458
CA 50.261 25.9999 51.2352
CA 55.4437 18.8882 49.3511
CA 39.2709 -3.58518 80.7344
CA 10.7613 19.4673 59.4488
CA 41.875 -2.91739 68.1409
CA 39.5525 1.46572 35.0554
CA 45.1492 -1.02337 45.2275
CA 38.0958 7.16249 34.6475
CA 18.0807 25.3347 49.0508
CA 26.475 7.64002 60.1394
CA 39.2561 -7.04265 59.4842
CA 44.1095 15.9092 54.4001
CA 11.2401 17.3414 59.8274
CA 7.41227 21.0956 59.9155
CA 59.8813 8.58555 58.2671
CA 37.7453 -1.81744 29.8232
CA 43.5956 11.4129 66.9651
CA 40.1168 -4.69724 52.3322
CA 40.2498 2.84441 42.9871
CA 34.204 0.878795 63.4086
CA 39.813 -5.24548 38.6707
CA 30.7913 5.68629 50.8218
CA 38.2464 24.5578 75.9848
CA 15.4859 -7.01742 51.3185
CA 13.0566 21.6083 44.9227
CA 45.3461 7.56721 55.3905
CA 37.8789 24.8757 65.7535
CA 34.5305 13.3824 33.5471
CA 38.3025 17.302 54.677
CA 22.4482 8.67394 31.4284
CA 43.9467 4.1234 61.6768
CA 23.8982 18.4009 57.8513
CA 61.4709 23.026 66.5252
CA 29.5688 3.00949 44.7779
CA 41.8578 27.4511 54.2785
CA 19.6588 8.9875 42.3319
CA 47.9994 11.3028 38.1256
CA 30.5749 22.7967 44.5914
CA 33.2443 24.7767 59.132
CA 45.1288 15.3906 63.4555
CA 31.7678 22.3987 86.2566
CA 37.0372 25.536 54.7012
CA 40.1599 28.1658 73.5779
CA 32.1179 7.6169 42.0818
CA 42.365 9.96994 73.6888
CA 16.9171 22.1654 49.457
CA 21.7205 3.78816 48.735
CA 34.5531 23.3031 84.8358
CA 14.3765 11.5842 3.61202
CA 17.9384 20.8206 38.1138
CA 33.4299 9.04794 56.5702
CA 16.2273 24.8819 52.9691
CA 30.988 4.18159 67.6396
CA 36.3415 19.5775 82.9732
CA 37.2039 11.1426 69.7496
CA 34.3678 19.4854 36.2686
CA 44.4552 17.8292 30.9393
CA 30.9033 15.5011 47.2553
CA 39.0416 7.17954 62.8081
CA 11.1545 12.7687 63.4916
CA 20.3641 -3.05502 50.4707
CA 44.6064 8.64965 53.9924
CA 13.0741 28.4622 16.196
CA 35.5054 12.8507 53.5924
CA 42.5614 8.61837 79.9446
CA 32.8659 23.0266 50.5938
CA 55.0596 12.4723 46.7799
CA 38.6524 13.2511 62.4263
CA 58.0834 18.686 66.1797
CA 23.8519 -1.00146 55.6197
CA 52.5726 4.03219 47.7898
CA 14.5756 -3.20856 52.3498
CA 58.2695 12.8983 66.5476
CA 43.4495 20.5462 60.4422
CA 23.5818 -17.0833 49.2378
CA 49.9303 3.82216 48.622
CA 9.57926 24.171 62.1741
CA 17.8597 26.3289 15.4493
CA 54.615 16.8495 57.3218
CA 8.11824 14.7734 55.3301
CA 16.8072 -4.68552 54.6958
CA 39.5867 34.5846 48.9622
CA 43.588 1.70966 40.4958
CA 44.0626 15.5328 87.5369
CA 50.0709 -0.779836 37.1606
CA 44.0393 15.4445 58.5883
CA 10.7992 21.219 58.8037
CA 15.5478 13.0171 63.0374
CA 19.228 1.44489 46.5617
CA 43.1586 10.0769 41.0492
CA 18.5411 19.3248 31.7152
CA 15.9658 17.7114 25.1844
CA 18.2306 19.0704 38.6403
CA 34.1585 14.8919 58.7958
CA 43.3268 8.39117 78.1697
CA 57.2989 3.61378 60.1839
CA 37.5522 10.1731 56.4369
CA 45.6276 11.7381 56.4223
CA 20.0005 22.6537 53.1015
CA 40.9364 -7.77937 55.4086
CA 27.0151 7.09939 35.886
CA 6.14651 18.3844 60.2085
CA 25.9824 1.79938 50.771
CA 35.3646 8.12174 73.2982
CA 51.5546 24.6804 55.5273
CA 12.7648 6.84411 64.2313
CA 35.2409 0.442681 40.8126
CA 52.9025 3.57083 44.6398
CA 53.7913 16.8251 65.3026
CA 32.1673 10.4063 60.0637
CA 65.2919 15.1944 59.3684
CA 25.3568 7.99866 39.6342
CA 44.7289 12.4232 78.1686
CA 38.1353 26.1744 43.4573
CA 33.5208 3.31649 68.2633
CA 32.763 19.707 64.5242
CA 39.839 25.5701 42.0966
CA 43.2163 -4.68159 46.6651
CA 9.71917 13.5347 4.06176
CA 29.6202 12.9197 60.5545
CA 33.9728 27.0977 50.6557
CA 48.9145 24.3877 54.7845
CA 45.0521 21.3606 55.0145
CA 17.8136 25.7075 51.712
CA 12.6144 13.4437 0.307703
CA 46.5835 12.0796 39.8079
CA 15.2984 7.77152 36.434
CA 27.4932 -14.191 44.4692
CA 54.2418 20.7116 59.607
CA 38.9499 21.1642 81.6697
