489

CA 18.1787 -9.46621 76.6941
CA 11.5977 -40.9239 61.368
CA 17.577 4.60016 59.5618
CA 14.346 -15.2031 84.0597
CA 8.3357 -24.5711 48.038
CA 6.18736 28.2499 43.5702
CA 27.5206 18.7651 62.7339
CA 2.00942 -20.1832 46.5991
CA 39.3793 -1.42209 58.9972
CA 5.75474 -30.8373 43.2653
CA 11.8748 23.2446 65.0209
CA 21.3964 25.612 56.1587
CA -11.979 4.32258 78.2238
CA 31.6067 11.6507 63.3751
CA 23.8925 21.0736 55.4649
CA 18.0072 -12.1765 55.7908
CA 10.6672 24.6259 44.5661
CA 24.3275 15.345 43.8718
CA 13.2211 -20.8225 82.1132
CA -2.89128 21.9466 46.4344
CA 14.0605 -22.1134 77.7347
CA 8.51153 -22.215 81.3743
CA -2.35569 17.6385 34.1835
CA 22.1567 27.2996 57.9553
CA 26.3683 23.3639 57.775
CA -2.95458 7.45469 92.3393
CA 0.293607 21.199 46.4279
CA 2.53762 -6.9204 39.985
CA 1.00266 17.2791 45.6409
CA 12.0745 -25.7679 79.8827
CA 28.0072 -11.0461 63.5937
CA 16.3611 -7.28788 41.6113
CA 31.6891 -3.60519 53.1652
CA 51.3117 1.64016 47.4553
CA 1.00068 20.6461 53.6119
CA 23.9719 -32.3692 65.0431
CA 23.0928 28.6621 59.9551
CA 0.250435 11.7482 48.2392
CA -17.0967 -35.2538 40.3408
CA -6.89291 24.1085 38.5127
CA 3.63906 0.575564 63.834
CA 8.529 -7.49812 50.2667
CA 24.2738 30.4966 20.3218
CA 19.9753 15.0891 47.5169
CA 4.44423 -2.27621 36.0167
CA -18.8481 33.6065 45.9074
CA 11.7431 5.971 58.8832
CA 14.9176 -4.94698 42.429
CA 19.0621 -7.5356 63.6535
CA 6.88353 -20.0956 44.939
CA 21.4664 19.9568 48.9994
CA 10.1398 18.8489 52.0385
CA 8.00616 -24.5598 50.8774
CA 0.977378 6.46062 66.5545
CA 8.06318 29.848 46.8808
CA 9.9693 30.8308 42.6838
CA 2.99252 -20.9539 39.6624
CA 6.94878 -7.44272 43.4649
CA -15.9547 -38.5559 36.7145
CA 1.17846 10.538 50.5968
CA 18.7203 -16.2856 87.7886
CA 31.6309 -2.0158 52.0914
CA 5.19756 -24.5794 67.0714
CA 2.00767 22.6309 70.6153
CA 10.8876 -15.6622 83.1084
CA 16.0257 -3.46183 56.0858
CA 14.7986 -24.3772 78.6827
CA 24.4236 2.12702 51.0515
CA 5.08255 1.39496 74.3761
CA 38.4419 3.17887 52.7954
CA 31.1568 0.110612 65.8694
CA 7.50296 0.471046 54.6478
CA 10.6733 -14.4326 46.7819
CA 15.288 0.61528 41.5201
CA 6.32423 -8.91342 79.5901
CA 17.5846 20.1276 43.8399
CA 11.481 -20.1283 39.0326
CA 27.3625 21.1049 53.9847
CA -5.18471 9.07027 66.9799
CA -2.47831 -20.8129 37.8993
CA 9.82167 28.4524 52.0447
CA 3.92429 26.9385 44.0635
CA 34.0626 10.4872 61.1343
CA 25.1794 25.3105 63.5572
CA 19.7811 -3.12776 55.749
CA -3.51906 30.8925 69.1294
CA 2.2232 17.3451 52.4379
CA 20.9957 19.7922 64.1893
CA 26.3807 -3.14902 63.0883
CA 13.6458 -4.92444 58.3488
CA 28.8335 7.45419 61.8545
CA 12.0817 -11.6229 50.9417
CA 9.28977 1.05303 42.1936
CA 7.99855 18.8001 49.8175
CA 6.4405 0.774945 47.9948
CA 8.06547 -16.2907 83.0954
CA 4.77979 -14.0245 40.5786
CA 16.6516 8.31712 49.1388
CA 0.960933 -9.56241 37.5804
CA 28.8891 9.64061 60.0899
CA -0.537075 25.996 48.6507
CA 16.6766 -17.4281 84.7726
CA -5.74661 32.3514 70.6791
CA 3.69708 20.0975 64.9077
CA 8.08656 20.5303 73.374
CA 10.3118 7.65158 64.9058
CA 17.1106 -5.27627 82.8731
CA 9.06396 22.8801 54.5298
CA 20.5065 0.857855 83.4862
CA 25.5677 7.60911 47.6672
CA -20.92 9.42868 38.8568
CA 5.30495 -21.0147 43.9152
CA 11.5577 23.0606 59.9606
CA 18.3982 10.7162 48.3731
CA 0.792939 -19.0812 65.3458
CA -1.50453 24.2547 45.787
CA 27.2862 7.91667 49.6747
CA -18.425 7.42346 46.4654
CA 37.1862 8.30321 65.6138
CA 10.7591 -30.2967 36.4361
CA 26.4211 -9.82478 65.1869
CA -8.08851 30.6759 70.0474
CA 28.2815 14.1153 45.1408
CA -21.5979 9.62215 48.0812
CA 5.677 -0.350791 36.0534
CA 6.67098 -1.50761 45.5188
CA 18.7499 -8.80235 67.4377
CA 32.0492 -7.2205 64.8679
CA 9.82095 23.461 58.8603
CA 23.6551 -4.40549 64.4453
CA 0.567549 23.8396 72.3535
CA 10.4391 2.4572 70.9222
CA -8.52475 15.8071 95.1457
CA 16.8218 -20.9136 73.4074
CA 5.90579 -5.59742 42.2516
CA 9.20197 -17.1792 77.2442
CA 6.68312 -13.4771 70.6896
CA 1.15591 -31.9514 63.9208
CA -19.2624 10.5434 52.9015
CA 26.8067 16.525 65.6328
CA 6.17508 20.9719 47.718
CA 4.45375 -7.12885 42.4301
CA 11.9775 4.41128 69.5662
CA 2.1559 39.947 60.7109
CA 23.6686 28.1615 49.5053
CA 22.0897 14.4129 38.7885
CA 17.6686 24.9414 54.8787
CA 19.7234 -12.0067 65.0476
CA 15.4327 -18.1497 43.2559
CA 10.2215 -21.5583 39.1858
CA 8.31724 1.93676 62.7936
CA -33.2056 27.2777 39.1839
CA 18.068 -12.9834 88.3536
CA -10.1399 13.376 65.3556
CA 4.67729 -17.1384 46.6304
CA 36.8877 -0.145243 58.0201
CA 22.3424 22.7586 41.074
CA 15.7296 -5.92648 40.516
CA 11.1705 20.6795 44.5296
CA 19.0337 -0.7377 39.503
CA 21.0433 -3.26792 63.1892
CA 6.07949 22.3765 61.1067
CA 26.5705 11.8309 47.5021
CA 21.8938 20.7238 47.3072
CA -5.6814 10.4754 94.8372
CA 18.9866 22.3535 53.4584
CA 21.0556 -0.393347 53.7389
CA -4.26849 14.7655 74.4266
CA 18.1479 18.4829 65.3654
CA 5.77503 -31.9718 37.3105
CA -18.9995 -41.7044 42.55
CA 20.9115 6.5214 47.6608
CA 31.4983 3.0641 69.5008
CA -8.55107 -6.35939 64.5504
CA -0.0310547 18.2593 47.6524
CA 9.00372 -15.2765 45.8485
CA 15.8155 -24.3199 75.2536
CA -36.1431 28.8621 36.4284
CA 5.29293 17.9464 48.5997
CA 28.1443 9.59445 70.6928
CA 12.9167 -23.0924 70.7214
CA 8.4187 24.9309 59.069
CA 4.14473 -9.24251 41.507
CA 2.47661 -31.9434 78.3351
CA 23.8418 4.17915 50.0003
CA 7.10675 10.8041 67.0812
CA 0.888587 32.0473 38.9084
CA 20.3271 0.0407993 51.5675
CA 18.8179 10.1701 61.5777
CA 1.26882 26.6154 69.4087
CA 24.7189 -6.49214 46.1687
CA 4.56665 14.9379 64.4572
CA -19.2319 -33.5697 41.3915
CA -37.052 25.2841 45.8688
CA -0.32165 7.91299 67.7581
CA -14.8004 15.0131 69.6904
CA 19.7452 -5.75662 71.2327
CA 36.7411 0.0129575 60.0457
CA 14.7292 5.88448 53.3345
CA 23.862 4.12148 53.553
CA 37.5327 -0.443985 53.8416
CA 10.5595 5.53864 65.7888
CA 2.81438 22.8945 67.3436
CA 0.328747 18.8683 43.0182
CA 21.8731 -14.2089 64.4417
CA 12.1289 8.51138 66.7305
CA -2.34865 14.5988 75.25
CA 12.2988 -18.6746 78.1159
CA -8.07751 -4.01435 74.6067
CA 12.8271 15.3751 46.45
CA 3.94004 -24.5341 69.465
CA 6.61307 26.7913 47.5323
CA -16.2723 -33.7906 36.1163
CA 2.15707 21.6556 45.391
CA 37.0271 3.47266 64.405
CA 24.716 19.5215 65.0176
CA 20.1993 29.1221 51.4836
CA 5.01372 -25.7764 65.2956
CA 1.45607 22.8791 48.8805
CA 26.314 6.11111 53.0429
CA 6.90663 10.5032 60.6846
CA 12.8871 -7.32023 74.7748
CA 25.1653 -13.7539 58.3969
CA 9.15374 -14.7608 69.7706
CA 3.78436 -21.6998 67.9756
CA -19.6152 -32.0411 40.3997
CA 31.329 5.36445 61.0208
CA 27.8368 17.0177 29.2124
CA -3.79202 32.6874 33.1801
CA 0.752492 -17.7573 47.248
CA 7.24369 25.6908 62.9278
CA 7.72567 -27.834 38.9153
CA 9.6881 10.4349 67.2332
CA 29.3483 7.37881 71.2837
CA -0.415403 32.5414 35.5719
CA 1.50747 -18.5239 40.2348
CA 15.2678 15.3412 19.6395
CA 28.7283 6.2456 69.6659
CA -21.5388 7.95612 50.5542
CA 20.1356 -5.2589 58.3922
CA 2.42022 18.2697 65.9253
CA 10.4887 -19.0156 47.6665
CA 4.80047 -5.4654 57.6791
CA -12.4428 -7.43349 65.271
CA 39.1557 1.12615 61.1813
CA 5.89084 -10.2384 81.1136
CA 25.8343 22.2631 55.453
CA 17.5999 -15.442 85.8059
CA 13.2357 -6.90706 53.5369
CA 1.11647 25.9899 65.8983
CA 9.99461 -5.2421 48.7104
CA 14.5268 23.5763 51.9766
CA 2.80091 11.1506 66.6329
CA 3.89747 19.9693 70.4375
CA 52.2122 5.22216 49.6223
CA -7.40424 27.3383 35.1895
CA 19.4165 14.2498 40.8983
CA -1.66607 17.9865 45.7373
CA 14.3827 7.67916 58.1348
CA 19.2546 -1.45858 50.9185
CA -22.1412 35.8225 40.3757
CA 22.8954 9.48856 21.7652
CA 1.41857 8.40725 69.6923
CA 25.6213 9.47902 51.4118
CA 22.3136 -6.30224 60.5145
CA 22.368 15.5454 69.081
CA -35.2165 25.5111 43.4056
CA 25.8493 23.9348 54.2554
CA 17.4053 -2.6314 78.1019
CA 7.77056 -19.8761 80.8476
CA 9.5737 -28.95 38.0289
CA -0.102065 15.8913 46.8328
CA 14.3781 -21.6465 74.5069
CA 12.6878 17.9631 53.1503
CA 17.0651 15.4792 18.3657
CA 7.67034 -10.4004 80.4455
CA 0.762937 -23.1487 38.7313
CA 10.0303 3.93678 37.4596
CA 22.756 -7.42582 49.5377
CA 26.5215 17.9733 64.1594
CA 7.90796 -27.0185 40.8258
CA -2.47622 31.9048 34.8425
CA 6.62877 31.1259 44.8854
CA 16.1927 -4.81732 74.4018
CA -30.8997 27.8415 37.6379
CA 19.5801 -5.01148 60.8028
CA 6.64986 20.1331 65.2163
CA 6.78517 -25.2798 45.0975
CA 7.59768 1.6756 44.8613
CA 21.7409 -1.6561 57.9372
CA 4.82444 21.9492 57.3234
CA -28.2875 15.1249 54.416
CA -0.286476 19.4553 46.2407
CA 1.74577 19.7565 52.09
CA -2.25522 7.00743 95.901
CA -0.976862 22.2152 43.1031
CA 27.9732 19.3972 28.2108
CA -0.268285 -21.5562 66.1817
CA 3.2897 -14.0886 46.5488
CA 3.05917 29.3798 46.5148
CA 11.9145 -15.0531 41.0659
CA 7.45432 -15.4583 84.875
CA 18.3909 16.6863 71.4667
CA 8.51045 24.9682 44.1913
CA 6.9025 -3.90668 40.2319
CA 22.5592 22.8734 54.3826
CA -8.36663 24.0825 39.7272
CA 15.3788 6.26151 15.2122
CA -27.4273 21.1441 42.4353
CA 23.2719 -13.7025 61.4526
CA 5.7051 -5.98112 59.7605
CA 5.24032 23.0377 76.0589
CA 20.9082 19.2331 51.1087
CA -3.98504 10.9531 74.3878
CA 10.4835 27.3466 50.1279
CA 4.99766 -26.706 71.6454
CA 4.46156 20.964 63.3351
CA 24.1598 29.5593 22.4976
CA 10.1844 -22.5145 71.9259
CA 17.4551 26.8593 25.1317
CA 20.561 -24.1815 79.4554
CA 12.2006 3.76866 40.7264
CA 28.8116 -4.82405 63.9255
CA 15.6494 1.06643 79.3815
CA 4.13871 21.9224 51.0943
CA 20.2016 -8.64451 57.195
CA 19.8625 21.2705 51.8396
CA 10.9826 -5.83001 35.0936
CA 0.515714 15.1331 44.6776
CA 2.66579 -27.1856 75.6304
CA 17.243 -6.40263 55.3742
CA 16.616 -9.08813 82.4697
CA 7.49274 -11.1382 45.4635
CA 12.6295 -18.5982 41.5816
CA 6.12361 24.7263 55.7097
CA 26.4776 10.7719 13.341
CA -20.9758 -18.4817 62.1466
CA 5.98793 -4.56069 55.2629
CA 36.1855 2.77275 62.3594
CA 18.7601 27.9816 53.4915
CA -5.09119 18.7628 57.8736
CA -4.39305 17.6919 64.6553
CA 14.1865 -23.9611 73.5376
CA 4.6693 29.3148 38.7337
CA -0.947086 -21.8448 38.2429
CA 17.8461 -23.4068 77.7416
CA 7.57668 6.63042 63.3682
CA 26.8315 16.5188 68.1741
CA 23.2844 -13.1029 63.7299
CA 15.4035 -26.8276 60.9181
CA 5.98987 17.4857 52.4087
CA 29.8455 4.60824 72.1204
CA 16.23 16.4778 42.3922
CA 35.17 4.85996 61.7994
CA 27.0175 7.51193 56.1343
CA 20.1548 29.5643 48.3976
CA 4.75635 -4.38302 34.1533
CA 16.4875 -1.58485 81.9694
CA 7.85737 -28.4724 64.5638
CA 8.53231 -3.49489 56.5578
CA 8.12113 -12.8781 44.2703
CA 6.25989 -21.8892 47.3381
CA 5.96521 -23.0847 72.2374
CA -21.841 0.817503 48.7628
CA -5.34985 -33.2562 65.4806
CA 8.65444 12.9031 49.4253
CA -7.70636 33.3901 73.635
CA 33.6641 7.71785 63.7736
CA 11.4025 -13.5512 71.6754
CA 9.62942 -43.5114 60.1299
CA 31.2604 6.10326 52.7312
CA 18.3943 23.4306 49.3558
CA 27.8397 0.366123 64.4956
CA 32.5282 -3.51709 64.6783
CA -19.3899 -30.8283 42.9514
CA 6.33469 12.4279 35.0501
CA 23.3242 14.5473 62.8948
CA 22.0876 22.4551 50.0111
CA 9.45808 7.83345 68.2327
CA 3.20315 -21.4102 37.7881
CA 1.77348 7.48591 61.4405
CA 28.3326 -3.97381 66.3525
CA 30.2936 -2.4568 65.1805
CA 15.7078 -10.5477 40.1451
CA 15.0116 -23.4473 70.8798
CA 22.7177 13.7378 43.8715
CA 32.564 7.40449 61.3685
CA 7.63098 28.1564 38.0523
CA 20.3401 3.01652 48.7682
CA 19.3714 -2.74528 53.1344
CA 8.67383 -17.0202 41.5491
CA -0.555235 28.8158 71.8028
CA 0.980846 20.383 41.7596
CA 23.6373 24.082 30.3193
CA -5.30809 13.0035 77.8701
CA 31.4244 -1.83874 66.7169
CA 9.8915 -14.0393 82.5069
CA 10.3122 -18.0233 87.403
CA 17.3982 -6.57323 77.0152
CA 29.0251 4.29673 68.4318
CA 16.9993 20.3736 48.2094
CA -1.36535 -19.1509 40.1768
CA 14.4843 4.8548 61.4307
CA 17.6134 -0.165173 49.5253
CA 6.94597 -14.5683 76.9611
CA -23.567 12.8188 40.951
CA 4.56196 7.9727 72.4141
CA 5.49191 -2.88247 56.2199
CA 16.5995 -15.4062 39.6132
CA 3.6702 -25.2502 61.476
CA 10.1621 27.189 44.2171
CA 7.8398 19.9037 69.5158
CA 3.61304 -14.0704 44.4481
CA 1.10018 20.8506 44.1226
CA 25.712 28.0541 50.3832
CA 21.0006 -2.26136 43.873
CA 11.2044 -32.2306 34.1312
CA 15.0077 6.58948 61.5294
CA 9.99469 -3.94653 33.7787
CA 21.5325 15.9087 44.6767
CA -0.717185 -16.9231 49.8765
CA -22.5237 6.77582 45.9901
CA 22.6114 -7.8404 54.7246
CA 12.5093 -10.1629 80.2843
CA 27.9421 19.0081 57.1907
CA 8.56781 -19.6302 42.3636
CA 3.9415 -7.81666 45.6137
CA 5.38078 -23.9593 79.3405
CA 2.91553 17.77 50.7521
CA -18.8902 -38.7701 40.2973
CA 10.9545 -19.5458 45.5046
CA 20.1706 21.8617 47.0481
CA 33.7338 -5.17423 62.0856
CA 7.72445 -25.0422 79.2953
CA 21.7254 27.65 53.17
CA 24.199 25.8238 59.7155
CA -0.0423181 15.5477 37.9934
CA -19.1887 -33.363 36.7225
CA 24.2767 4.55566 67.4477
CA 15.9612 23.5888 53.4535
CA 28.1316 17.8724 65.4893
CA 3.769 9.52049 68.6256
CA -1.03807 41.7029 63.6132
CA 9.66432 -4.20385 39.814
CA 25.432 17.4072 45.9991
CA 7.20013 22.255 68.7438
CA -18.5576 -19.2326 61.9115
CA 16.2597 25.3553 49.2663
CA 14.4941 6.60262 64.532
CA 5.34015 26.8394 38.935
CA 38.6375 -0.452531 57.5769
CA 4.07219 -21.7563 64.8857
CA 9.68744 -17.3468 82.9837
CA 3.6093 38.6779 64.8825
CA 15.7669 16.0491 22.3273
CA 17.5324 27.1463 55.0297
CA 2.4921 18.799 45.7104
CA 7.15273 26.4577 45.0193
CA 33.2737 9.00497 54.987
CA 3.10344 35.8341 63.2581
CA 11.1237 23.0709 35.3459
CA -28.3385 18.722 38.5586
CA 26.0495 2.80881 66.289
CA 4.26779 -2.25165 39.5228
CA -21.9471 32.3857 42.6526
CA -32.8406 19.181 44.672
CA 16.746 17.3581 50.6509
CA 7.16968 -14.5008 47.1179
CA 10.4645 -11.0036 72.6937
CA 23.358 31.9705 60.5097
CA 10.1133 -12.6278 80.3837
CA 3.06837 39.9485 63.1398
CA 8.3224 18.9311 55.3261
CA 4.02529 23.8312 73.7956
CA -22.9981 34.608 47.5914
CA 15.5389 -8.37914 55.3932
CA -5.9558 29.1114 67.1357
CA 9.32298 3.28368 65.2973
CA 31.0354 2.88896 64.1001
CA 2.70872 22.2827 74.4901
CA 20.4072 -15.1813 63.7078
CA 21.3061 22.6637 57.3342
CA 2.54298 19.603 41.1674
CA 8.45996 -17.8141 87.4646
CA 1.45569 31.1933 34.5243
CA 20.6564 17.8356 49.3592
CA -1.64193 8.84672 68.5786
CA 12.8861 -24.5778 67.683
CA 20.7694 14.4435 69.6922
