489

CA 2.21437 -18.2289 40.6535
CA 28.1251 6.2247 48.1301
CA 35.0009 -4.18453 62.6142
CA 6.95861 -14.9999 80.2918
CA 23.4132 15.0194 37.266
CA 20.0577 -13.3443 48.8189
CA 28.8634 -42.7452 42.6016
CA 14.8143 -23.9108 52.3367
CA 16.6913 -0.546612 75.0179
CA 15.8682 -32.5544 42.85
CA 7.38065 -18.1306 60.9291
CA 14.7368 -21.0293 78.9651
CA 13.7105 -18.42 27.602
CA 21.0489 -28.6642 58.8115
CA 27.7602 2.98389 42.0786
CA 19.7407 7.78041 32.8581
CA 5.35028 -27.5155 22.3041
CA 8.70132 -20.6313 66.1041
CA -22.4036 -8.84115 34.6594
CA 28.9397 -18.5195 45.7114
CA 6.66691 -0.598179 36.6162
CA 34.3187 6.71893 60.2296
CA -9.2692 2.36815 61.4939
CA 2.27975 -1.62555 71.1596
CA 6.95076 -2.85889 84.9328
CA 22.3937 8.81686 37.2162
CA 33.0837 4.65796 57.4125
CA 2.81224 -5.62817 79.7153
CA 41.5963 -4.22234 54.9172
CA 21.1056 -23.3216 58.0225
CA 0.853097 -3.91365 78.3384
CA 0.14777 -10.038 78.4837
CA 1.70044 -28.0646 44.113
CA 4.30151 -26.4371 26.9762
CA 26.768 -13.6125 29.4677
CA 10.4186 -15.3513 62.708
CA 10.4907 -23.2902 29.9998
CA 26.6923 31.7158 41.2304
CA 18.4386 -30.7329 40.8365
CA 5.33282 -28.3966 31.9842
CA 5.98 -27.4289 66.7868
CA 27.0478 5.52601 59.7323
CA 27.1989 -22.9607 60.2348
CA 14.0226 -13.4108 67.0452
CA 24.3753 -14.1996 57.1499
CA 26.1383 -22.6603 67.8796
CA -0.0131355 -7.8325 78.6662
CA 6.46424 -13.3465 73.2533
CA 2.30467 -25.6847 70.0384
CA -4.2495 -22.8017 46.5418
CA 19.0594 -16.2717 70.5574
CA 4.7396 -2.96979 52.4643
CA 27.6064 -19.5221 40.2668
CA 16.0576 -16.5693 77.6892
CA 5.66203 -24.741 43.6966
CA -6.27759 -11.5235 43.9239
CA 4.0313 -7.79198 86.031
CA 30.2052 2.06666 35.4465
CA 4.83148 -15.7704 71.2874
CA 19.3638 -34.8071 45.0923
CA 29.6263 -38.8762 42.4519
CA 1.55799 6.96869 60.5674
CA 29.359 -37.3319 45.089
CA 4.82562 -16.7447 81.9772
CA 9.53145 7.53106 61.6792
CA 14.924 -2.20999 45.2494
CA 12.8301 6.71193 61.1723
CA 38.906 2.46531 35.2838
CA 26.5617 7.6132 58.1817
CA 24.4157 -39.0267 39.2303
CA 4.94267 -11.6806 66.992
CA 6.59238 1.49891 39.1912
CA 12.4313 -37.9446 47.283
CA 9.79774 -16.6537 57.7111
CA 34.7506 9.17702 36.2651
CA 9.42656 -21.5331 75.104
CA 30.3606 -0.417051 52.9998
CA -0.624273 -7.10594 83.464
CA 7.33063 -20.5748 62.5799
CA 4.09391 -11.793 56.5168
CA -4.30351 2.42927 58.9051
CA 37.8307 -12.2062 81.6503
CA 41.353 4.38725 29.4353
CA 6.86746 -18.6455 74.7857
CA 5.79437 -15.6415 66.7414
CA 16.3841 -26.1263 46.9888
CA 15.1954 2.0326 69.8005
CA 6.19729 -16.7522 70.5938
CA 22.3165 15.4117 34.1539
CA 6.38738 1.69333 57.1403
CA 10.1209 -13.2742 49.9288
CA 6.39394 -17.8408 68.1704
CA -2.59632 -25.9796 49.1524
CA 21.9653 -26.6348 62.6384
CA 26.2672 -16.7565 47.583
CA -4.21133 12.6444 62.7569
CA 33.6648 -8.35125 82.4898
CA 35.2378 5.35174 56.5386
CA 7.98445 -1.25512 29.4159
CA 24.3111 -24.7025 42.9702
CA 25.9328 13.4347 37.5593
CA 33.2832 8.94733 61.4598
CA -2.23488 -12.971 52.6283
CA 40.7959 3.63319 47.1179
CA -1.63835 -1.44378 65.5
CA 30.9873 -23.2997 41.2546
CA 1.85113 -14.7882 46.3852
CA -0.602119 -27.6944 56.969
CA -2.11564 -15.5625 47.3727
CA 15.4138 -23.772 55.8842
CA 4.16037 -10.6199 80.8605
CA 28.3691 5.98632 58.01
CA 24.0426 11.9759 38.4793
CA -7.64951 -9.33086 47.3604
CA 1.58344 -7.49285 85.1594
CA 21.4356 5.16222 51.5281
CA 20.681 -12.1532 29.846
CA 20.9347 23.6849 38.7552
CA 1.39027 10.6334 64.8459
CA 5.99521 3.15611 34.4804
CA 19.7501 -8.5442 39.1337
CA -0.883889 -16.8378 55.3998
CA 12.5261 8.85937 36.7172
CA 9.07038 -23.5767 28.9012
CA 35.4958 -5.13738 34.2605
CA 10.222 -14.6488 56.8584
CA 26.2962 2.69557 43.1731
CA 8.80981 -13.7683 36.3213
CA 12.5513 5.76303 37.1777
CA 11.4124 6.21894 47.4773
CA 42.5616 0.780177 47.9037
CA 25.6415 -16.3226 37.6424
CA 13.0988 -1.21213 71.5144
CA 6.90733 -11.5499 51.2333
CA 1.88372 -25.3809 66.0815
CA 37.0764 8.56932 43.6264
CA 3.92755 -28.7967 36.0299
CA 2.16524 -11.0068 75.2867
CA 7.19818 -1.38559 82.9152
CA 14.9486 -3.84511 48.8064
CA -0.219008 -25.0597 60.064
CA 8.23946 -16.3763 76.1258
CA -2.40637 -0.0414024 57.1009
CA 26.4313 9.47848 47.662
CA 19.2044 4.16548 37.6816
CA 19.9806 -9.48597 30.1534
CA 19.0886 23.8864 38.4348
CA 10.4926 -12.3496 74.001
CA -2.767 5.03076 60.292
CA 4.20511 -28.2253 34.1653
CA 26.997 13.2811 50.4779
CA 1.37809 -13.7977 60.7207
CA 6.28368 -10.8373 35.7911
CA 1.91795 -21.9209 59.1063
CA -3.48982 1.62896 48.6996
CA 14.5718 10.9162 65.1312
CA 24.6644 -19.5498 59.3602
CA 40.7172 -6.39222 31.8787
CA 24.8379 3.55881 29.5252
CA 45.3597 3.10051 45.3494
CA -2.60041 -13.7711 55.1821
CA 6.59969 -25.434 56.5178
CA -23.9341 -0.469599 60.6251
CA 12.9984 -22.6107 57.0778
CA 23.6241 -27.4733 62.04
CA 13.8717 -10.6881 59.0494
CA -25.4357 3.56031 58.557
CA 7.2053 5.40899 58.3263
CA 9.52518 7.75411 37.724
CA 11.4193 -18.4262 76.6091
CA 22.9026 9.08994 34.9222
CA 26.9407 -9.36202 59.2206
CA 11.811 -16.4209 64.2138
CA 27.9946 -9.62352 29.5884
CA -5.55006 6.75553 57.0625
CA 17.1048 -24.7018 52.6602
CA 28.2937 9.25328 54.4519
CA 20.4183 -5.45044 55.0923
CA 22.7488 6.15571 55.8709
CA 24.689 -37.9518 43.1908
CA 35.1505 3.69088 55.6453
CA 34.15 5.46646 37.2871
CA 29.817 -38.3503 47.0343
CA 24.1425 -30.7721 62.8291
CA 3.60929 -9.99674 64.9129
CA -21.6065 -0.476802 63.8131
CA 8.58197 6.3055 62.6968
CA 6.95259 12.293 64.1724
CA 27.3179 2.39201 33.5001
CA 8.1601 -16.4057 70.5858
CA 40.7209 12.1662 45.3153
CA 10.1108 -18.5367 33.1043
CA 11.9543 5.58235 69.6583
CA 5.34168 -8.87937 75.2766
CA 25.6235 -24.0717 62.1167
CA -6.7642 -15.8035 46.8666
CA 0.0351066 -20.8591 58.3423
CA 7.06175 -26.6453 24.9291
CA 16.9387 -4.38005 48.211
CA 34.5691 4.90395 59.1207
CA 22.3464 0.189038 53.0893
CA -3.52105 -2.63279 54.8644
CA 4.29359 -19.7107 70.9015
CA 5.20185 -25.6391 25.1533
CA 33.5125 -10.4051 81.1335
CA -5.11613 -13.9747 55.6388
CA 10.7408 -12.5636 45.8551
CA 6.96638 -6.02409 84.0872
CA 22.4101 17.9809 39.7504
CA 7.05576 -1.93549 58.6926
CA 20.9604 5.47006 43.2924
CA -10.1282 -13.0452 46.9084
CA 15.7117 -17.8484 22.4191
CA 26.9408 -38.5571 41.4418
CA 7.72001 -16.3347 41.4256
CA 12.9455 -23.4905 42.3214
CA 3.29946 -16.3791 67.7915
CA 10.5529 7.67696 69.9385
CA 12.1225 9.87719 67.8462
CA 26.252 -25.1721 41.8581
CA 4.31075 -12.8016 54.4337
CA 32.9827 7.36629 38.2943
CA 13.395 -14.8636 56.7654
CA 7.73819 2.28294 34.642
CA -0.608778 -9.9773 49.4238
CA 4.79642 -14.4376 69.254
CA 17.7691 8.39111 39.3119
CA 6.75339 -27.5622 81.2837
CA 1.10012 -6.61771 42.8147
CA 10.7354 -16.4131 77.1267
CA 6.58351 -17.3348 43.2066
CA 13.1463 -20.3552 66.4625
CA 2.32205 -14.5682 64.4269
CA -1.55206 -15.3505 40.2203
CA 28.2715 0.00739444 57.044
CA 25.9074 2.86786 57.8876
CA 4.32763 -19.1016 68.9725
CA 40.5937 -2.21055 56.7327
CA 8.6504 -26.8411 26.5591
CA 37.847 -9.78428 79.2051
CA 22.9905 3.14687 33.0718
CA 3.27934 -27.2436 32.0611
CA 8.11876 -20.941 50.0123
CA 2.41995 -14.7835 40.1282
CA 37.7243 11.2067 44.4301
CA 22.9186 -7.20772 49.6766
CA 4.29053 14.3773 61.8274
CA 6.28407 -1.71198 54.4566
CA 21.1005 -11.1787 26.2822
CA 16.2337 -2.50717 71.5145
CA 10.4047 -4.46786 71.7307
CA -0.874931 -14.6523 49.848
CA 24.3572 -25.4124 65.5665
CA -26.7032 -0.750122 57.1684
CA 26.447 -26.0754 38.8771
CA 29.1758 3.92992 57.6237
CA -33.2267 -3.04311 58.0742
CA 1.56033 -17.8645 35.2544
CA 2.77376 -7.03952 77.0324
CA 19.0813 -24.4904 53.6737
CA -4.43178 -0.311431 58.2022
CA 26.4942 -15.5527 51.877
CA 15.217 -2.60774 73.0713
CA 2.15361 -9.04488 88.91
CA 7.61092 -12.0574 36.6422
CA 2.66011 -5.86315 40.1726
CA 20.9005 3.95733 41.552
CA 42.168 -2.9377 30.4908
CA -4.47073 3.36374 52.1354
CA 1.80688 -20.1731 68.5844
CA 0.317299 -5.25028 84.9871
CA 9.0148 -18.4968 60.0692
CA -3.55241 5.55942 62.0389
CA 17.8217 6.14166 38.895
CA 7.91689 -4.69241 31.8791
CA 28.2256 4.07749 49.5242
CA 24.9039 10.2604 31.6979
CA -9.58991 -7.44194 52.5849
CA 20.7084 -18.1634 52.7736
CA 7.20836 -22.3918 64.855
CA 19.2387 8.4051 53.4528
CA 12.4336 -11.6103 74.3867
CA 3.56163 -12.2449 42.7582
CA 17.6027 22.9222 42.5784
CA 20.3048 -23.8823 48.512
CA 13.3126 1.34015 69.2826
CA 12.221 -11.1884 81.1583
CA 19.5101 -7.98002 31.6932
CA -0.899128 -19.9434 41.9009
CA 17.3517 -12.4895 67.2492
CA -9.95485 -15.8753 50.8688
CA 20.6049 -4.69374 56.8643
CA -3.20236 0.913518 50.8915
CA -3.07952 -3.79412 79.0401
CA 13.4252 -8.03214 73.7005
CA 2.04603 -8.79104 77.8025
CA 6.06911 -10.6857 45.8282
CA 21.5306 1.11198 37.2744
CA 8.48266 -11.335 42.0935
CA 1.03838 -9.04657 45.3283
CA -9.45247 -11.5601 44.1693
CA 6.07376 -13.9073 61.1614
CA 6.83226 15.68 66.1637
CA 27.1363 5.68576 50.7499
CA 7.82979 -22.7749 51.5647
CA 0.765666 2.12071 63.9439
CA -2.15359 2.22772 66.2195
CA -6.07449 16.9676 58.3148
CA 6.02364 -13.5399 70.9905
CA -0.900956 4.61015 66.6558
CA 17.8889 -25.9084 55.7596
CA 19.4573 -14.9945 58.2936
CA 41.0528 4.88866 31.4822
CA 12.5887 1.56178 48.7079
CA -17.5271 -1.13616 54.9277
CA -1.03364 -12.5322 82.0127
CA 3.84549 -8.50778 70.6109
CA 10.9948 -23.8795 57.8164
CA 21.5875 18.4137 37.6239
CA 21.5346 15.1323 36.8324
CA 3.04971 1.0496 56.3467
CA 23.8821 -21.9128 62.5275
CA 8.41315 -8.06016 73.9308
CA 8.43052 -2.9464 72.5307
CA -5.66618 15.3769 61.2068
CA -2.20664 -18.5208 58.498
CA 6.49952 -8.15604 42.5703
CA 30.7832 2.0831 38.8701
CA 40.5958 -4.19328 32.612
CA 4.92359 14.8364 64.4541
CA 9.7177 -21.3875 42.983
CA 1.98115 -23.8513 63.3666
CA 1.80009 1.87854 66.3545
CA 29.4878 -23.623 39.6468
CA 13.7529 -19.1905 29.9018
CA 29.3635 1.09789 52.4052
CA 19.2629 17.1934 37.3727
CA 30.9329 -18.61 41.028
CA 4.00963 -26.1144 66.289
CA 35.5377 -7.03434 34.7865
CA 16.2243 -19.7231 78.8299
CA -10.2486 -1.36604 50.9095
CA 31.9926 -0.829016 63.6269
CA 35.9162 9.55384 45.0115
CA 25.8361 -9.77545 31.9059
CA 4.32869 -9.72181 48.6569
CA 29.0213 8.57878 61.2248
CA 5.38264 10.9252 63.5872
CA 0.424279 -7.56257 87.3197
CA 24.2259 -26.703 59.5415
CA 12.5278 -33.1998 44.4771
CA 39.0391 3.57259 32.2115
CA 20.3802 -7.46962 36.5495
CA 10.5005 -16.9568 68.0628
CA 15.4917 -9.17784 49.8418
CA 8.72622 15.9006 68.4318
CA 31.5207 -5.11896 33.5617
CA 17.6548 -16.5825 57.4764
CA 19.6471 -32.207 41.0332
CA 8.27545 -26.9457 70.8126
CA 21.0345 14.1597 39.2764
CA 32.8886 -9.56018 32.0876
CA -1.93482 -24.0004 48.9944
CA 1.7339 -16.7141 42.8133
CA 0.839903 -11.5523 71.752
CA 18.3203 3.51272 35.0492
CA 0.271854 -16.6032 41.4201
CA 8.68302 -0.87181 57.3257
CA 22.2449 17.4948 36.0482
CA 22.5375 -15.9041 55.1735
CA 24.9637 -14.9481 55.1477
CA 27.1926 -0.847185 35.1061
CA 25.7361 -25.897 67.0324
CA -2.09645 2.07042 68.821
CA 14.2734 -6.30766 76.9191
CA 7.83714 -2.3348 55.5806
CA 12.128 -17.1394 66.4593
CA 14.474 -13.4814 45.2627
CA 2.89117 -9.99882 85.4515
CA 16.6818 -12.4685 79.7787
CA -2.02208 -26.5825 68.5523
CA 34.3985 0.141628 65.3618
CA 9.72763 -13.577 33.5944
CA 25.4971 -12.1742 59.7872
CA 19.6536 -23.5397 56.9026
CA 7.69509 -10.4369 34.2753
CA 17.3737 -9.56903 50.1662
CA 11.137 -17.4032 46.0971
CA 22.5547 -34.7951 36.6861
CA 14.6797 -17.6605 54.8537
CA 1.95938 -18.128 68.6155
CA 15.2248 -3.332 67.6675
CA 3.50118 -12.682 73.1632
CA 17.8821 -28.1962 39.7057
CA -0.558448 -6.20632 76.5145
CA 2.701 -12.5781 55.5111
CA 21.886 -7.48652 27.857
CA 1.55618 -7.58134 73.3366
CA -6.36696 18.7125 58.6718
CA 36.3464 -4.68535 57.4473
CA 9.17092 8.39578 63.9782
CA 17.5737 -30.2408 43.9937
CA 8.83156 -18.9739 50.0349
CA -1.59319 -4.26823 71.569
CA 30.4229 5.83976 62.1461
CA 12.7255 -5.90415 51.0463
CA 29.975 -16.7761 45.8805
CA 8.59522 -17.0688 62.5068
CA 34.8154 13.4853 51.023
CA 21.9811 12.353 36.7551
CA 23.0285 -4.55833 63.8088
CA 8.29246 4.50683 50.3025
CA 29.4992 4.72579 30.6514
CA -2.67303 -4.72067 77.533
CA 13.6872 -8.75954 76.877
CA 8.30327 1.03957 54.5217
CA 19.129 7.65572 40.4935
CA 18.7452 -22.6218 58.5393
CA 43.8812 4.46631 33.1997
CA 33.9608 -6.33885 81.2941
CA 4.61898 -13.2564 34.0771
CA 22.9346 -8.42367 58.1045
CA 8.70946 -28.0291 55.6724
CA 19.0286 -13.7202 68.9559
CA 0.036895 -6.88129 81.7494
CA 26.1454 4.21285 44.8018
CA 33.0271 17.5564 52.6278
CA 21.8289 -16.5841 57.6671
CA 6.5608 -20.25 67.1139
CA 4.38447 -8.18175 79.2991
CA 4.71778 -23.139 66.3095
CA 41.2834 1.89542 31.2894
CA 1.76368 -16.5853 51.5229
CA 9.59579 -15.7784 51.6294
CA 9.51283 -13.785 76.9914
CA 10.0659 -2.21348 35.9105
CA 42.2485 2.69218 29.8506
CA 10.4809 -28.6487 58.9208
CA 21.0212 7.01954 41.63
CA 4.28513 -23.9099 30.7131
CA -12.22 0.433543 49.4632
CA 7.46494 -9.34593 30.2049
CA 20.5528 -14.9351 68.4069
CA 10.2366 9.66083 37.5543
CA 4.86262 -17.1306 37.7555
CA -22.5565 0.276554 30.0527
CA 21.0721 6.30653 54.9715
CA 1.88199 -8.18706 69.3972
CA 20.937 -24.1656 60.7613
CA 9.3663 9.81547 66.3627
CA 5.15004 -17.4379 55.8903
CA -5.01286 -17.7899 47.6154
CA 5.33719 -12.3926 75.6981
CA 16.4654 -14.5253 25.7056
CA 23.65 -22.543 53.9987
CA 7.62541 -14.4904 59.0159
CA 5.16973 -3.53435 47.7967
CA 3.24911 -17.756 71.5668
CA 40.0745 3.3785 52.5514
CA 1.18577 -18.2865 30.7183
CA -19.2721 0.710658 29.2413
CA -21.3205 -6.29856 24.4408
CA -5.36655 -5.72781 45.4693
CA 21.5644 4.82209 56.7251
CA 24.9951 -3.48634 62.496
CA 6.8649 -11.7418 44.3523
CA -2.05241 4.18604 57.8587
CA -0.343627 8.36195 55.9748
CA 4.47064 -7.84507 40.975
CA 14.0786 11.6786 66.8036
CA 25.2755 4.78385 46.5179
CA 16.333 -26.248 35.9079
CA 26.4441 -2.76252 32.8168
CA 2.56187 -4.52307 41.7726
CA 10.5978 -13.6902 79.2151
CA 15.4494 6.20658 37.6792
CA 38.361 5.70322 52.7997
CA 21.3347 -32.4355 38.4354
CA -7.19381 0.758824 61.5311
CA 3.71684 -11.0025 88.5607
CA 23.0797 2.99645 44.7567
CA 20.9149 -26.312 42.2936
CA 35.114 0.847381 57.8932
CA 38.943 8.33953 29.4826
CA 23.9688 10.3756 45.901
CA 3.57138 -24.6538 76.2341
CA 20.5863 15.7648 42.6472
CA 24.6524 -14.0294 30.1525
CA -0.238488 -19.4523 40.2943
