489

CA 10.7996 -29.8995 49.8897
CA 33.6714 -44.5711 46.0008
CA 28.0437 18.1044 32.0799
CA 5.05088 -9.47063 49.6893
CA 4.85614 -7.5075 86.9069
CA 15.7401 -30.3379 51.6148
CA 28.1492 -16.1929 75.2136
CA 6.08778 -10.0032 39.5904
CA 5.24933 3.72693 64.4484
CA 34.6137 3.92461 60.4822
CA 7.41526 3.29488 47.0606
CA 14.7368 -21.0293 78.9651
CA 10.3672 -7.98932 47.4235
CA -0.466704 -10.0739 79.3049
CA 46.0264 9.07023 34.2099
CA 9.62696 -6.2112 77.1628
CA 31.1509 -18.0666 76.6596
CA -6.94919 5.39256 61.4191
CA 48.2618 -1.51001 34.5235
CA 28.9397 -18.5195 45.7114
CA 6.66691 -0.598179 36.6162
CA -1.77957 -24.8792 78.2904
CA 21.5616 18.9996 43.2101
CA 38.3554 7.87442 38.9888
CA 19.0424 4.67334 47.5159
CA 16.2168 15.3445 41.4877
CA 11.8668 -8.4892 63.3522
CA 20.8109 -12.7448 86.443
CA 4.33303 -19.3654 70.1352
CA 3.8275 -22.68 68.6785
CA -4.06798 -18.7417 79.9213
CA 17.1497 -30.4176 54.0497
CA 19.7232 19.2426 40.2757
CA 2.95426 8.84242 54.3541
CA 26.9718 16.5114 43.9668
CA 25.5423 -15.4023 48.1908
CA 10.4907 -23.2902 29.9998
CA 25.3684 -11.8354 37.1246
CA 39.9395 1.50901 24.0992
CA 21.0841 11.7168 44.9926
CA 5.24728 1.31301 55.8056
CA 42.2434 13.9233 33.6801
CA -3.87115 7.12192 63.7396
CA 20.4223 4.35417 39.7994
CA 8.81606 -20.1677 64.1771
CA -1.27811 -8.76308 75.416
CA -0.0131355 -7.8325 78.6662
CA 21.6459 -41.5621 43.8185
CA 30.2233 -15.3243 26.9929
CA -1.30948 -10.068 44.4755
CA -34.9213 -1.24528 61.1821
CA 9.19434 3.72398 36.1846
CA -3.52806 -23.1034 83.552
CA 1.77531 1.24018 58.6259
CA 15.7856 -19.0195 54.3814
CA 17.7732 -13.0992 48.4583
CA 14.8796 -5.04047 69.6729
CA 6.38047 -8.36128 37.1793
CA 6.25479 -27.1123 69.4932
CA -6.22457 -2.22992 41.9865
CA 29.6263 -38.8762 42.4519
CA 29.9639 -44.2918 49.1515
CA 2.61581 -10.999 46.302
CA 6.64151 18.4031 66.0817
CA 10.6705 -21.9328 20.1701
CA 5.57512 14.2773 66.9855
CA 5.68792 -5.83813 40.8591
CA 38.906 2.46531 35.2838
CA 26.5617 7.6132 58.1817
CA 8.8768 -8.40346 77.6554
CA -4.60501 5.96594 61.715
CA 11.6843 4.43068 65.3632
CA 20.4966 -12.1221 64.3785
CA 22.1214 2.12564 28.057
CA 24.3775 -13.1021 45.3341
CA 5.61217 -25.1918 27.9123
CA 20.9264 15.7694 37.0132
CA 11.3284 -18.9261 18.8723
CA 14.1546 -13.9588 69.2107
CA 0.412024 -14.8992 69.356
CA 23.6942 12.6071 35.6206
CA 8.29551 -12.2976 75.7888
CA -26.6571 -8.45509 27.8762
CA 20.3012 23.728 39.736
CA -2.8919 -3.42783 63.7656
CA 16.3841 -26.1263 46.9888
CA 16.9418 5.67075 42.1079
CA 3.56896 -15.306 66.1122
CA 4.96129 -18.6768 79.9025
CA 8.57495 11.4657 65.8097
CA 19.2121 -12.3392 82.7469
CA 33.8446 -6.93383 33.7945
CA 39.3302 -3.25126 60.3684
CA 1.43706 -10.1355 79.4136
CA 14.1726 -23.1705 82.9121
CA 16.3537 -11.3455 65.2313
CA 25.9461 -14.9232 75.7456
CA 6.98713 -12.1905 83.4126
CA 41.11 -5.39794 26.8173
CA -0.408357 -21.1849 81.0739
CA 20.6461 -3.51048 70.0642
CA 15.989 -16.822 23.9228
CA 38.323 4.00674 41.3635
CA 24.1566 -6.54791 31.6092
CA -1.63835 -1.44378 65.5
CA 11.4 -12.817 30.5747
CA 10.1691 14.3092 68.5638
CA 22.8402 -21.9441 54.5365
CA 2.44951 -20.4862 55.0302
CA 22.9576 3.30661 23.8282
CA 18.1177 -11.5347 63.7966
CA 2.62498 -11.3794 78.6451
CA 0.358889 -12.4768 76.8305
CA 17.3897 -10.8833 52.2922
CA 15.4527 -14.9187 72.1457
CA 26.0298 -5.65772 33.4847
CA 14.5246 -9.45226 36.7792
CA 20.8047 8.35122 41.7451
CA 6.29265 -13.5152 81.857
CA 12.3782 -28.1229 54.5101
CA -10.9962 -4.08186 51.7436
CA 8.88685 -10.3046 42.5715
CA 14.8814 -15.9233 19.2512
CA 9.19068 6.34188 75.3939
CA 16.8446 -7.61366 52.0659
CA 4.63772 -19.9694 72.0015
CA -33.9569 -1.12899 64.1746
CA 24.1558 -6.57576 64.2829
CA 12.5513 5.76303 37.1777
CA 4.85795 0.871976 46.7197
CA 12.1753 -14.7157 28.9909
CA 37.1805 -46.5971 52.8909
CA 27.2418 -34.0841 43.0335
CA 6.26495 -12.1304 54.9957
CA 25.0665 11.6962 46.7802
CA 6.32167 -12.0736 79.6508
CA 3.84168 -22.8727 74.0852
CA 8.51052 -15.3167 67.0836
CA 3.36321 -25.6714 64.3993
CA 14.4353 -19.3497 17.5423
CA 6.95689 4.77726 62.5336
CA 24.876 13.3289 40.5694
CA 14.9272 -7.02149 66.1325
CA 3.67181 -16.5876 77.3055
CA 18.7605 9.8082 38.5815
CA 18.5125 -9.48452 72.4336
CA 11.8221 -24.1166 73.9261
CA 38.649 -50.1259 50.0238
CA 22.4269 -6.96246 66.5285
CA 12.772 -17.7125 48.0906
CA 14.4761 8.59242 44.2572
CA 6.03674 8.41276 62.7476
CA 2.24174 -11.9086 71.1261
CA 30.8471 4.77219 55.0353
CA 13.936 -15.2628 48.8914
CA 3.82077 -26.658 72.9688
CA 31.4366 -14.2126 29.7432
CA 19.275 -35.2645 38.5094
CA 26.2885 -14.3596 54.2441
CA 16.0503 -9.50211 60.588
CA 11.206 -17.0339 19.2002
CA 29.7405 -1.72283 31.1015
CA 5.80498 -9.92449 88.5087
CA -4.72683 -6.86471 80.5542
CA 37.5312 5.36175 69.6125
CA 4.61767 5.54266 65.4134
CA -3.31239 -11.9939 45.6013
CA 17.3777 -2.49854 69.1933
CA 19.4333 -15.454 69.03
CA 3.34734 -12.2274 65.2455
CA 39.0684 -2.91861 30.0413
CA 14.8883 -9.29986 47.1119
CA 10.9042 -11.8231 69.2845
CA 20.0815 -15.5869 80.8805
CA 14.9009 13.7573 52.7154
CA 4.50127 -27.8053 80.1168
CA 10.818 -26.911 73.2953
CA 8.83377 -24.4097 49.6942
CA 13.6436 -11.0625 62.7247
CA 25.9118 -25.5723 61.7237
CA 6.01432 -27.258 26.9489
CA 21.6539 17.1156 40.4911
CA 7.94676 -18.456 73.5986
CA 4.62576 -13.4746 79.8399
CA 6.49603 11.6181 67.3202
CA -21.6065 -0.476802 63.8131
CA 26.5453 -18.0064 71.5667
CA 9.31212 -13.7504 54.3209
CA 28.8338 -16.3638 77.6617
CA 14.2245 -15.8664 59.7726
CA 1.77601 -22.7566 60.0435
CA 46.5666 -2.26897 34.6345
CA 27.0474 -1.2872 26.8232
CA 19.0814 -17.1646 55.3372
CA 11.9494 -20.169 80.1195
CA 33.0668 1.85049 54.7112
CA 36.5199 5.12957 60.0236
CA 6.10567 1.70479 65.299
CA 23.8855 -17.8521 55.1237
CA 15.4325 -6.52901 35.3045
CA 2.42805 4.52833 62.8869
CA 38.4737 5.3178 73.8518
CA 22.355 8.20232 36.3252
CA 31.347 20.0528 49.662
CA 32.7044 -39.9212 43.0214
CA 42.4492 5.32711 31.1399
CA 4.33191 21.4347 63.8047
CA 41.864 2.44263 31.1763
CA 23.6466 -11.4214 30.2552
CA 38.3196 -1.4105 32.0489
CA 0.436347 -11.6732 43.6122
CA 16.0912 -6.43127 46.1535
CA 12.1689 -19.8324 15.8478
CA 18.9833 -10.1772 54.2148
CA 3.13456 -14.2737 78.9183
CA 3.7078 -13.4292 45.8679
CA 27.9231 7.19978 31.9056
CA 19.9299 -14.804 51.7034
CA 36.2738 0.115407 61.0455
CA 4.85635 -25.375 70.0154
CA 19.1528 -5.05498 80.2104
CA 14.581 12.8125 45.9665
CA 19.5036 -33.1754 39.3317
CA 23.2747 -16.6 56.7682
CA 5.16798 -17.0764 33.7348
CA 11.4341 -18.1843 30.1778
CA 10.9005 -9.9969 41.2247
CA 7.9954 7.76693 74.4475
CA 28.5187 -4.28517 65.0511
CA 10.7354 -16.4131 77.1267
CA 13.8053 -15.8228 14.5083
CA 4.54578 -10.7357 80.5898
CA 31.1595 20.1183 51.9236
CA -5.87249 -11.9625 47.051
CA 55.3907 0.771899 31.6245
CA -4.45402 -23.3645 51.5538
CA 5.32578 17.0204 64.5128
CA 10.7663 -16.2155 70.7633
CA -7.84897 -20.6012 46.4346
CA 23.4769 -3.70645 52.6331
CA 29.3994 -17.1982 48.6899
CA 42.183 -2.30059 26.3277
CA 19.9423 -19.526 75.059
CA 13.6146 -18.1554 15.722
CA 12.508 -14.4877 72.9545
CA 15.4264 -11.8807 69.0773
CA 27.9734 -11.6725 32.5071
CA 4.91684 -5.76927 36.2539
CA 21.1005 -11.1787 26.2822
CA 24.0644 2.10988 40.7675
CA 26.9252 -16.2152 76.8214
CA 12.2489 -7.3458 43.2002
CA 9.46541 -17.4019 68.2161
CA 38.85 -2.66562 54.5736
CA 38.8416 -3.7025 33.3255
CA 10.1884 -19.448 79.6581
CA -33.2267 -3.04311 58.0742
CA 30.4614 -21.4223 79.835
CA 32.4666 -4.22393 30.2379
CA 8.1252 -19.1411 69.7979
CA 7.64242 -14.3699 71.0167
CA 6.68431 -12.638 44.3719
CA 20.8135 20.6063 30.9227
CA -3.66182 -7.92619 76.4796
CA 20.4696 -14.11 72.9322
CA 23.1732 11.5467 32.7664
CA 8.0717 5.38362 58.8892
CA -0.227295 -13.1258 53.5461
CA 21.2615 -7.20531 64.8158
CA 1.80688 -20.1731 68.5844
CA 6.60016 -8.77026 86.1891
CA 9.0148 -18.4968 60.0692
CA 12.863 -7.49673 45.3288
CA 14.216 -26.1425 58.5465
CA 5.96405 -13.2671 32.5517
CA 39.7102 -2.29649 27.4356
CA 24.3991 -11.1696 50.2072
CA 28.5261 -16.6991 28.8798
CA -5.74156 -19.3731 49.2451
CA 31.9761 -44.8232 44.6099
CA 30.8657 -5.51258 30.6429
CA 13.5239 -13.2216 53.2001
CA 4.17266 -10.8843 83.2076
CA 29.3255 5.71177 33.2399
CA 2.30642 -12.496 74.9176
CA 9.8696 -30.5319 52.3916
CA 26.7242 0.773069 39.6257
CA 40.5301 -2.45542 62.0778
CA 19.6555 -13.1717 62.0737
CA 13.8791 -28.0123 44.4323
CA -0.64793 2.94132 65.1131
CA 24.8755 10.8246 29.3366
CA 18.9903 -36.719 49.3371
CA -4.02857 -2.69524 76.9635
CA 6.70965 5.63159 73.9898
CA 5.24711 -15.3428 82.4914
CA 0.473349 -8.70265 82.0407
CA 10.6947 3.7004 60.0324
CA -3.33717 0.0697421 67.9735
CA 12.4127 -1.47237 68.2074
CA 12.325 -3.22341 70.6969
CA 12.0095 -10.9871 61.869
CA -8.52589 -4.17123 49.2439
CA 16.8462 -15.4105 22.0605
CA 47.8322 5.98435 37.6186
CA 28.8386 4.79244 58.2731
CA 21.6612 -19.0306 52.8915
CA 6.66172 5.16978 69.9136
CA 6.94646 9.48461 68.1081
CA 1.62571 16.9481 65.5975
CA 7.43662 -22.5908 79.6752
CA 10.42 -6.97776 75.2592
CA 36.8945 4.87629 57.9432
CA 22.0074 -13.7679 63.4828
CA 16.5376 -12.9746 82.7472
CA 15.6582 4.27664 72.7076
CA 4.73601 10.0347 59.1316
CA 2.79617 -9.71343 64.1201
CA 23.4527 14.877 32.0692
CA 26.6742 -5.03165 50.9144
CA 29.4697 22.7202 49.8706
CA 15.1577 4.07732 47.6107
CA 16.6813 2.55303 68.9758
CA 4.09425 -27.7218 31.7714
CA 27.4386 20.8409 53.1307
CA -21.8937 -5.92004 26.1968
CA 20.8324 18.888 31.6794
CA 18.0684 -14.107 81.5955
CA 40.5958 -4.19328 32.612
CA 4.92359 14.8364 64.4541
CA 6.76898 3.35316 65.7344
CA 38.3117 5.65382 34.7713
CA 26.6211 2.47593 44.159
CA 18.0693 -8.94322 79.2867
CA 38.0921 -4.5675 30.7785
CA 6.96864 3.00735 68.4305
CA 16.5082 -10.4652 53.9118
CA -0.856327 -15.4869 47.0642
CA 16.4 -6.01563 37.5724
CA 35.5377 -7.03434 34.7865
CA 2.90263 -9.85328 73.016
CA 19.4671 -11.4969 84.7126
CA 31.9926 -0.829016 63.6269
CA 28.6734 -3.27322 29.3868
CA 4.24203 -21.2717 65.1055
CA -18.9786 -5.98088 26.0977
CA 45.2433 9.79497 38.1049
CA 21.0664 15.8366 31.5211
CA 26.3453 -10.146 60.9375
CA 21.4523 -6.7851 53.4057
CA 9.07542 -0.821458 70.1806
CA 25.0064 0.391889 27.4088
CA 29.5787 -16.7038 46.3256
CA 20.6771 14.8764 38.7818
CA 17.445 -18.4078 78.6239
CA 10.9385 -10.5303 44.4322
CA 15.4818 -21.3949 17.1061
CA 1.14814 -13.4816 44.0602
CA 25.5374 5.26648 28.4721
CA 8.27545 -26.9457 70.8126
CA 41.736 3.52474 37.8717
CA 19.2282 -5.63884 63.89
CA -1.93482 -24.0004 48.9944
CA 36.8513 -3.04437 31.4066
CA 22.5637 14.1914 40.1061
CA -7.11975 -8.84294 76.5052
CA 6.08682 14.9886 49.8125
CA 13.0465 -30.6504 49.8824
CA 9.38727 -10.576 39.4008
CA 6.79131 -5.44694 81.7127
CA 20.9569 -14.5407 65.1609
CA 39.4865 3.80263 75.7335
CA 4.04943 13.2842 53.0504
CA 11.8157 -1.44952 65.8917
CA -3.74444 -11.8666 61.2857
CA 46.9318 1.26136 35.0042
CA 21.6308 -5.41179 60.8676
CA 34.1253 -4.9272 30.5091
CA 27.3831 9.12969 44.2937
CA 0.922257 -30.3574 79.7299
CA -2.02208 -26.5825 68.5523
CA 6.93032 -12.2347 77.632
CA 6.20639 -9.69883 78.7664
CA 32.467 -15.0925 48.1827
CA 25.1503 17.3923 42.7444
CA 24.3067 14.9352 44.9052
CA 26.6606 14.135 31.472
CA 7.19213 -13.7194 79.4958
CA 37.5987 -6.24219 31.3096
CA 14.6797 -17.6605 54.8537
CA 23.4876 -9.86572 31.8866
CA 15.2248 -3.332 67.6675
CA 8.57724 -3.02288 74.0688
CA -0.473906 7.78649 61.5608
CA 17.3016 -8.67212 68.3804
CA 13.9055 -6.1098 82.831
CA 21.1373 -12.8783 81.3517
CA 0.948592 -19.3611 79.9967
CA 24.3463 10.0586 33.6774
CA 36.6149 -7.14148 37.3223
CA 5.59219 -26.0334 80.415
CA 43.0847 0.025613 25.7484
CA 31.9735 -46.719 48.7489
CA 40.7688 2.99251 34.2634
CA 8.00172 -27.4597 80.5566
CA 41.0773 1.00295 38.5917
CA 12.115 -11.7189 56.9144
CA 41.1842 4.77794 35.594
CA 8.27256 7.68375 58.39
CA 2.41041 -27.5203 65.2897
CA 10.6397 -23.897 45.2379
CA 42.8547 -0.360336 37.0608
CA 34.712 0.621806 67.8417
CA 25.1686 -15.8856 46.1125
CA 14.9097 -33.2068 50.5219
CA 36.8863 -38.9028 44.7613
CA 32.25 1.50499 63.4843
CA 8.68335 -9.17283 79.5092
CA 14.5688 -10.6411 48.8106
CA 23.5381 -11.7046 62.6123
CA 8.41652 -13.0388 27.3576
CA 3.91218 -28.6544 82.4696
CA 29.6734 -50.606 48.5234
CA 17.1321 -10.35 67.5068
CA 9.75125 -10.5022 76.3234
CA 11.5425 -15.8191 80.3038
CA 33.0271 17.5564 52.6278
CA 1.64109 -30.24 33.4765
CA 36.9044 2.09517 41.4815
CA 26.1706 16.2528 38.4201
CA 34.0234 -4.08895 25.5157
CA -0.388457 -19.9848 54.7672
CA 18.639 -20.1698 77.5319
CA 23.6835 16.1935 40.7606
CA 7.69925 6.49087 65.7862
CA 28.5342 -7.90165 33.4607
CA 23.8767 13.3036 39.0518
CA 36.9518 5.94868 42.4709
CA -0.190213 -9.05492 43.1881
CA 9.4762 -9.57093 81.5622
CA 11.9878 -18.2699 67.2609
CA 11.33 -14.9587 17.7148
CA 13.2311 -15.8203 16.7521
CA 9.59684 14.7194 44.0959
CA -13.4 -4.25425 49.4725
CA 11.7949 -22.2623 48.4123
CA 8.32366 -12.3788 65.2683
CA 6.20946 -10.5965 81.7945
CA 15.5948 -34.8843 52.9268
CA -17.8183 -2.76127 63.0011
CA 5.15004 -17.4379 55.8903
CA 29.443 -16.5369 24.8465
CA 34.4122 2.35408 56.2422
CA 16.4654 -14.5253 25.7056
CA 15.3684 18.911 42.8806
CA 14.8132 -20.5701 67.7434
CA 15.1011 11.7008 69.0895
CA 18.5497 -2.77647 40.3141
CA 5.2554 -32.7388 29.4457
CA 13.122 -15.4183 54.0158
CA 24.9469 0.19512 40.1156
CA 15.2382 -15.1524 82.7661
CA 20.7328 7.22649 35.7048
CA 12.7851 -19.5299 61.0942
CA 9.90431 -23.1038 52.6829
CA -24.1445 -0.267815 61.3134
CA 35.8532 2.50702 58.5867
CA 2.6663 -27.3252 81.3918
CA 16.5626 17.0742 47.5164
CA 16.5581 -10.1788 70.5662
CA 5.09259 -5.56924 51.6649
CA 21.2318 5.26118 37.7192
CA 24.915 -16.0874 40.4285
CA 22.6246 10.9209 43.8441
CA 16.1756 -23.6927 41.0266
CA 2.322 -18.7987 73.51
CA 20.1914 -33.9684 44.5808
CA 21.7681 -37.6308 38.1282
CA 1.71333 -1.71556 63.6906
CA 32.9962 2.91288 62.1443
CA 13.0833 -20.5328 19.765
CA 24.0293 -14.9389 73.6174
CA 35.114 0.847381 57.8932
CA 22.7066 -33.5405 43.6528
CA 8.79975 -14.6956 81.1488
CA 51.182 9.09267 38.8807
CA 5.03295 -5.17368 77.3405
CA -6.56276 -6.79726 55.1586
CA 14.6246 -25.4096 50.7548
