489

CA 42.1262 3.15226 26.3176
CA 11.3154 2.11246 58.9692
CA 27.2035 10.1186 40.3443
CA 5.05088 -9.47063 49.6893
CA 9.31535 -9.88012 73.1464
CA 15.7401 -30.3379 51.6148
CA 28.1492 -16.1929 75.2136
CA 16.1621 8.16176 42.4805
CA 45.0592 -6.50192 32.3403
CA 7.28399 -25.8887 67.8959
CA 39.6963 -2.35889 33.5855
CA 5.10138 -33.2257 67.3005
CA 2.47067 -21.8621 75.0511
CA 18.5384 -4.46136 66.7784
CA 28.8177 15.175 39.4376
CA 13.9506 -17.4565 52.0532
CA 4.05313 -13.7597 82.317
CA 33.1727 6.31315 58.176
CA 22.7852 -33.5771 51.1242
CA 2.91448 -18.6695 52.5805
CA 13.6888 -8.55164 81.1731
CA -1.77957 -24.8792 78.2904
CA -1.71794 -10.3275 84.455
CA 3.85855 -27.801 67.0025
CA 17.6766 4.42467 69.9285
CA 16.2168 15.3445 41.4877
CA 11.8668 -8.4892 63.3522
CA 20.8109 -12.7448 86.443
CA 14.6543 -22.5678 49.7357
CA 3.8275 -22.68 68.6785
CA 10.389 -11.645 40.6681
CA 13.2886 -7.64692 70.435
CA -1.60913 -8.7079 81.2376
CA -2.7321 -13.2129 72.1944
CA 26.9718 16.5114 43.9668
CA -5.32032 -2.51045 80.9467
CA 12.2446 -14.1515 32.3942
CA 44.0073 -3.40108 37.6243
CA 43.4563 -6.68715 36.2653
CA -3.9306 -19.6812 45.9558
CA 21.1123 -1.58789 68.8277
CA 42.2434 13.9233 33.6801
CA -3.87115 7.12192 63.7396
CA 22.6835 8.63546 46.6947
CA 8.81606 -20.1677 64.1771
CA 3.12561 -26.7613 30.4672
CA -0.0131355 -7.8325 78.6662
CA 21.6459 -41.5621 43.8185
CA 13.208 -9.2506 65.6192
CA 23.3705 8.36811 42.8875
CA 13.7792 -19.0594 44.3015
CA 16.7503 -34.3796 49.2292
CA 15.0033 -8.22892 64.5632
CA 32.092 -33.2252 45.1127
CA 15.7856 -19.0195 54.3814
CA 33.6825 -2.35726 32.1133
CA -7.81484 -16.4913 44.9467
CA 17.9007 -11.7316 70.407
CA 6.25479 -27.1123 69.4932
CA 8.09179 -4.47754 77.6189
CA 29.6263 -38.8762 42.4519
CA 20.5164 -22.7196 49.7453
CA -3.13683 -7.29983 71.0902
CA 6.64151 18.4031 66.0817
CA 10.6705 -21.9328 20.1701
CA 19.8128 10.3907 43.5015
CA -4.11903 -13.3418 74.0575
CA 38.906 2.46531 35.2838
CA 38.3607 -2.40257 62.5835
CA 8.8768 -8.40346 77.6554
CA 26.8119 20.1867 41.6772
CA 14.2033 14.5106 43.433
CA 24.413 19.5404 39.6965
CA 0.402775 -12.5381 69.4937
CA 0.0626528 -17.5872 50.8854
CA 4.5723 -20.0614 59.5917
CA 5.90151 -20.0551 83.3529
CA 11.3284 -18.9261 18.8723
CA 8.39684 -18.2169 75.5125
CA 0.412024 -14.8992 69.356
CA 20.0956 -21.164 86.927
CA 28.1652 -2.413 27.8218
CA 16.9568 -14.4537 20.5157
CA 20.3012 23.728 39.736
CA -2.8919 -3.42783 63.7656
CA 16.3841 -26.1263 46.9888
CA -1.97686 -16.0996 43.1274
CA 3.56896 -15.306 66.1122
CA 4.96129 -18.6768 79.9025
CA 8.57495 11.4657 65.8097
CA 19.2121 -12.3392 82.7469
CA 14.0684 -11.7136 33.5414
CA 8.63398 -10.2586 71.0811
CA 17.1601 -8.79738 22.175
CA 21.2418 14.1556 41.3274
CA 13.4093 3.77796 58.4063
CA 37.2345 0.243462 58.0959
CA 5.2615 -3.9039 34.5159
CA -0.0183689 -11.3972 48.2123
CA 22.9019 -31.9198 42.8372
CA 20.6461 -3.51048 70.0642
CA 15.989 -16.822 23.9228
CA 34.0659 -15.1021 47.1368
CA 8.56125 -25.0298 48.3147
CA 17.0358 -6.51488 60.7562
CA 11.4 -12.817 30.5747
CA 10.1691 14.3092 68.5638
CA 22.8402 -21.9441 54.5365
CA 41.5452 -3.46351 34.0287
CA 22.9576 3.30661 23.8282
CA 33.4467 -6.34479 66.8888
CA 22.0687 -11.5201 54.0711
CA 0.358889 -12.4768 76.8305
CA 17.3897 -10.8833 52.2922
CA 19.0499 -22.3337 77.9987
CA 26.0298 -5.65772 33.4847
CA 14.5246 -9.45226 36.7792
CA 20.8047 8.35122 41.7451
CA 25.5188 14.1854 39.0503
CA 12.3782 -28.1229 54.5101
CA -10.9962 -4.08186 51.7436
CA 8.88685 -10.3046 42.5715
CA 10.6684 5.28166 61.6139
CA 12.8217 12.8101 71.745
CA 16.8446 -7.61366 52.0659
CA 37.1692 -3.57726 25.2269
CA 13.4637 3.25981 67.5934
CA 24.1558 -6.57576 64.2829
CA 23.8284 -18.9821 46.5627
CA 25.4066 -36.3748 41.5418
CA 14.5317 13.7101 50.2641
CA 37.1805 -46.5971 52.8909
CA 23.4226 -27.564 49.6669
CA 36.9745 -34.5987 47.876
CA 13.9798 -26.1367 47.1294
CA 6.32167 -12.0736 79.6508
CA 3.84168 -22.8727 74.0852
CA 8.51052 -15.3167 67.0836
CA 20.1992 8.95581 48.0529
CA 24.2096 19.3557 43.4503
CA 17.2421 -10.1176 83.7156
CA -26.3054 1.79593 67.3945
CA 22.6447 -15.321 82.32
CA 3.67181 -16.5876 77.3055
CA 23.3105 1.63462 29.5122
CA 29.7455 2.93285 64.8676
CA 32.1846 -17.5763 26.3609
CA 8.53711 -19.661 74.1045
CA 22.4269 -6.96246 66.5285
CA 12.772 -17.7125 48.0906
CA 14.4761 8.59242 44.2572
CA 6.03674 8.41276 62.7476
CA 3.30077 -12.6196 44.3125
CA -1.22377 -17.3314 81.6357
CA 11.4764 -15.9409 72.4229
CA 3.82077 -26.658 72.9688
CA 31.4366 -14.2126 29.7432
CA 10.4382 -13.8475 61.5884
CA 26.2885 -14.3596 54.2441
CA 9.05674 13.0726 64.0714
CA 11.206 -17.0339 19.2002
CA 41.5388 5.43682 39.9908
CA 7.92427 1.02286 64.6045
CA -4.72683 -6.86471 80.5542
CA 37.5312 5.36175 69.6125
CA 18.88 -26.4106 49.5488
CA -3.31239 -11.9939 45.6013
CA 17.3777 -2.49854 69.1933
CA 28.2268 -44.054 49.7163
CA 3.34734 -12.2274 65.2455
CA 27.333 -1.34955 29.123
CA 18.8563 -9.41509 50.4815
CA 10.9042 -11.8231 69.2845
CA 20.0815 -15.5869 80.8805
CA 14.9009 13.7573 52.7154
CA 30.8033 5.63504 57.5786
CA 10.818 -26.911 73.2953
CA 11.3995 -11.8905 80.3102
CA 10.4376 -24.4977 47.5516
CA 25.9118 -25.5723 61.7237
CA 39.5245 2.08407 30.1875
CA 6.52555 4.52873 57.3367
CA 20.3861 18.1362 28.2611
CA -2.78698 -9.87813 86.0137
CA 6.49603 11.6181 67.3202
CA -21.6065 -0.476802 63.8131
CA 26.5453 -18.0064 71.5667
CA 10.9924 -2.6335 63.8966
CA 28.8338 -16.3638 77.6617
CA 20.1746 -16.0871 60.5514
CA 1.77601 -22.7566 60.0435
CA 10.4365 -11.8958 46.5194
CA 20.5209 12.9032 28.3317
CA 6.49659 7.13179 55.4
CA 33.1428 -43.12 42.5941
CA 33.2766 -26.8544 81.5909
CA 36.5199 5.12957 60.0236
CA 6.10567 1.70479 65.299
CA 31.0445 2.20576 59.2044
CA 11.566 -7.33358 47.8726
CA 6.30952 -18.4325 77.7319
CA 38.4737 5.3178 73.8518
CA 24.8514 -17.8616 27.5793
CA 13.8348 1.46546 57.8268
CA 6.38044 -21.2071 65.0652
CA 42.4492 5.32711 31.1399
CA 20.5986 -9.03271 24.4951
CA 41.864 2.44263 31.1763
CA 4.27178 -7.59277 41.1223
CA 8.60213 -5.53279 43.856
CA 10.4861 -10.6348 76.138
CA 16.0912 -6.43127 46.1535
CA 1.90413 -14.2156 80.3587
CA 18.9833 -10.1772 54.2148
CA 3.13456 -14.2737 78.9183
CA 3.7078 -13.4292 45.8679
CA 27.9231 7.19978 31.9056
CA 19.9299 -14.804 51.7034
CA 30.4142 -5.90763 51.0102
CA 4.85635 -25.375 70.0154
CA 5.95906 -19.2196 74.5934
CA -0.0679308 -13.0923 73.8739
CA 19.5036 -33.1754 39.3317
CA 27.7366 6.73288 33.925
CA -0.570289 -18.5913 53.0711
CA -1.38837 -6.42169 78.3387
CA 10.9005 -9.9969 41.2247
CA 33.72 -43.9986 44.0933
CA 28.5187 -4.28517 65.0511
CA 9.90481 -15.0339 71.9219
CA 13.8053 -15.8228 14.5083
CA 22.4276 -10.5563 21.0666
CA 29.7743 -2.18129 32.3711
CA 4.05949 -19.5882 74.229
CA 21.158 26.3648 39.9303
CA 18.3164 -14.9603 86.8764
CA 12.0023 -6.71115 74.3869
CA 22.3513 -12.8204 88.3498
CA -7.84897 -20.6012 46.4346
CA -3.31002 -12.3194 49.0237
CA 20.9395 -16.0785 24.8126
CA 12.5182 -8.75808 46.171
CA 19.9423 -19.526 75.059
CA 19.0401 -10.822 61.705
CA 5.66715 -14.408 78.0932
CA 18.2508 17.6947 51.3329
CA 40.6347 -1.26278 38.256
CA 26.527 -20.844 80.1121
CA 13.4212 -2.45591 69.0236
CA 24.0644 2.10988 40.7675
CA 30.8639 -37.4245 43.3861
CA 18.5378 1.99125 44.1291
CA 35.7012 1.24556 32.428
CA 21.2786 6.48612 43.3108
CA 16.2209 -11.9699 24.9595
CA 7.51474 -9.29877 53.7465
CA 36.2636 -6.93794 27.7074
CA 30.4614 -21.4223 79.835
CA -1.63296 -5.04666 82.5366
CA 12.7528 -13.564 72.9047
CA 7.64242 -14.3699 71.0167
CA 23.354 6.46644 46.1017
CA 21.3912 -28.7689 14.1806
CA -3.66182 -7.92619 76.4796
CA 20.4696 -14.11 72.9322
CA 32.3195 -14.5172 24.226
CA 16.6064 -11.4876 21.6912
CA 22.0391 -32.1778 40.641
CA 21.2615 -7.20531 64.8158
CA 10.1177 -5.2974 81.3243
CA 4.29956 6.42349 58.2666
CA 6.71167 11.735 55.7352
CA 31.0642 3.61258 30.314
CA 18.0797 -12.2738 58.036
CA 20.4561 -33.8052 41.2638
CA 39.7102 -2.29649 27.4356
CA 24.3991 -11.1696 50.2072
CA 16.7121 -3.33773 65.927
CA 7.25137 -28.9172 50.6326
CA 4.82544 -0.245674 52.5123
CA 6.58501 -12.907 71.3932
CA 13.5239 -13.2216 53.2001
CA 13.436 14.1295 48.2925
CA 29.3255 5.71177 33.2399
CA 2.30642 -12.496 74.9176
CA 18.6486 12.5779 50.7514
CA 19.9498 19.8244 38.6489
CA 40.5301 -2.45542 62.0778
CA 6.99484 -20.0051 58.359
CA 31.3026 -10.7035 31.1072
CA 27.7271 -2.94824 53.371
CA 26.0958 -15.8197 50.2411
CA 27.1746 14.7616 42.1597
CA 9.86078 -16.8082 81.0568
CA 26.2942 12.4226 36.5738
CA 19.5721 12.7381 41.2383
CA 0.473349 -8.70265 82.0407
CA 10.6947 3.7004 60.0324
CA -11.4628 -2.51685 48.0741
CA 12.1327 -5.54849 48.2612
CA 6.7618 -28.9172 68.5853
CA 24.4956 16.4708 46.7159
CA 19.123 -5.36723 45.6845
CA 16.8462 -15.4105 22.0605
CA 47.8322 5.98435 37.6186
CA 28.8386 4.79244 58.2731
CA 26.0804 -6.67881 51.6852
CA 6.66172 5.16978 69.9136
CA 24.174 -9.29842 54.4361
CA 1.62571 16.9481 65.5975
CA 7.02113 23.4615 60.5198
CA 10.42 -6.97776 75.2592
CA -4.07275 -9.3399 72.7494
CA 22.0074 -13.7679 63.4828
CA 0.442702 -11.7641 46.3751
CA 1.90177 8.81085 59.3995
CA 2.8622 -20.2662 76.757
CA 7.74481 13.1064 69.6952
CA 12.4488 6.64294 58.9939
CA 27.2287 -13.6298 30.0029
CA 19.8265 -1.3024 51.6901
CA 5.72977 -20.1618 76.1828
CA 16.6813 2.55303 68.9758
CA 12.5148 -28.1772 48.0065
CA 18.9329 -12.4563 48.247
CA -21.8937 -5.92004 26.1968
CA 20.8324 18.888 31.6794
CA 12.048 -25.5812 42.3201
CA 31.7603 -4.22767 60.6107
CA 45.8653 -10.6308 41.8008
CA 1.12449 16.4749 51.7399
CA 18.5396 -29.3508 50.7554
CA 19.7861 -5.98793 66.4809
CA 18.0693 -8.94322 79.2867
CA 18.7078 16.2926 50.2184
CA 6.96864 3.00735 68.4305
CA 43.412 14.6951 35.9137
CA -0.856327 -15.4869 47.0642
CA 21.8292 -17.9456 83.8864
CA 35.5377 -7.03434 34.7865
CA 16.9638 1.04798 67.6217
CA 21.0243 -35.1958 37.5276
CA 31.9926 -0.829016 63.6269
CA 15.5435 -13.9145 29.5397
CA 4.24203 -21.2717 65.1055
CA -18.9786 -5.98088 26.0977
CA 33.6311 -16.7292 66.8669
CA 5.57104 -24.1843 80.8207
CA 29.3159 -24.7114 81.5411
CA 4.49543 -1.49386 33.1453
CA 2.61484 -5.00829 35.4297
CA 26.1314 7.02582 44.531
CA 29.5787 -16.7038 46.3256
CA 20.6771 14.8764 38.7818
CA 17.445 -18.4078 78.6239
CA 10.9385 -10.5303 44.4322
CA 14.326 -15.7814 70.2555
CA 22.0745 -17.5708 87.3124
CA 25.5374 5.26648 28.4721
CA 8.27545 -26.9457 70.8126
CA 26.9983 -2.90212 26.2838
CA 13.2631 -11.1411 66.2292
CA 30.8826 -30.428 45.2178
CA 20.1676 -31.117 48.5684
CA 25.8754 21.0896 42.9388
CA -7.11975 -8.84294 76.5052
CA 41.8777 -4.30045 36.1372
CA 15.7053 1.1018 62.2338
CA 9.38727 -10.576 39.4008
CA 6.79131 -5.44694 81.7127
CA 20.9569 -14.5407 65.1609
CA 39.4865 3.80263 75.7335
CA 4.04943 13.2842 53.0504
CA 42.8909 -1.22001 33.0754
CA 12.9775 -4.72568 69.2111
CA 46.9318 1.26136 35.0042
CA 34.0791 -5.70087 70.5337
CA 14.5382 -26.1291 44.0344
CA 28.75 0.672954 62.0832
CA 0.922257 -30.3574 79.7299
CA 28.3875 -17.7842 76.0737
CA 3.49635 -11.3306 79.1719
CA 35.678 2.21229 55.2824
CA -3.37233 3.09347 63.6392
CA 12.3748 15.1806 41.2926
CA 24.3067 14.9352 44.9052
CA 13.1104 -9.38883 75.115
CA 28.4648 4.13996 32.116
CA -24.5895 0.0410428 64.4524
CA 11.1053 -2.63584 68.0758
CA 23.4876 -9.86572 31.8866
CA 15.2248 -3.332 67.6675
CA 46.9995 11.5054 37.2545
CA -0.473906 7.78649 61.5608
CA 30.2643 -4.1428 30.6828
CA 13.9055 -6.1098 82.831
CA 21.1373 -12.8783 81.3517
CA 31.6241 -23.0787 84.2931
CA 10.7172 -16.3813 32.3915
CA 36.6149 -7.14148 37.3223
CA 5.59219 -26.0334 80.415
CA 43.0847 0.025613 25.7484
CA 31.9735 -46.719 48.7489
CA 40.7688 2.99251 34.2634
CA 19.8598 -20.7103 15.4594
CA 41.0773 1.00295 38.5917
CA 29.8725 -22.2592 84.4035
CA 9.33685 -10.0729 23.4195
CA 8.27256 7.68375 58.39
CA 15.0597 0.692661 59.1156
CA 10.6397 -23.897 45.2379
CA 42.8547 -0.360336 37.0608
CA 34.712 0.621806 67.8417
CA 25.1686 -15.8856 46.1125
CA 13.5361 -0.984454 44.9461
CA 6.37962 -16.9893 64.5317
CA 32.25 1.50499 63.4843
CA 24.9664 -3.95457 51.4274
CA 14.5688 -10.6411 48.8106
CA 3.95538 -17.3375 63.3438
CA 8.41652 -13.0388 27.3576
CA 18.0002 16.2935 41.1519
CA 21.5708 16.5589 37.1591
CA 17.1321 -10.35 67.5068
CA 5.76914 1.6801 59.8314
CA 11.5425 -15.8191 80.3038
CA 9.66148 2.91465 62.7616
CA 24.0727 12.4954 41.3422
CA 36.9044 2.09517 41.4815
CA 26.1706 16.2528 38.4201
CA 15.5355 -11.2133 45.5929
CA -0.388457 -19.9848 54.7672
CA 18.639 -20.1698 77.5319
CA 41.7815 -2.32729 35.9792
CA 7.69925 6.49087 65.7862
CA 17.9685 -35.5749 52.3166
CA 23.8767 13.3036 39.0518
CA 22.3305 -24.4084 14.5029
CA 5.6353 -4.75355 80.3553
CA 9.4762 -9.57093 81.5622
CA 11.9878 -18.2699 67.2609
CA 34.1765 -17.2488 65.1885
CA 13.2311 -15.8203 16.7521
CA 26.7676 -17.1279 28.4963
CA 28.1418 11.3636 39.0637
CA 11.3004 15.4927 43.7648
CA 8.32366 -12.3788 65.2683
CA 6.20946 -10.5965 81.7945
CA 15.5948 -34.8843 52.9268
CA 2.89862 -27.9532 69.7481
CA 5.15004 -17.4379 55.8903
CA 29.443 -16.5369 24.8465
CA 9.55518 -30.4753 55.7956
CA 47.3014 -2.4552 35.9208
CA 15.3684 18.911 42.8806
CA 14.3196 -10.5341 64.6525
CA 13.383 -10.5202 62.2576
CA 0.335659 -10.6552 74.8895
CA 15.9383 10.4167 56.3066
CA 10.9436 -4.95538 84.8261
CA 22.4188 -8.63272 22.536
CA 19.2459 9.76643 52.7674
CA 16.7359 19.4187 39.9859
CA 12.7851 -19.5299 61.0942
CA 18.4369 -19.4492 48.4074
CA -24.1445 -0.267815 61.3134
CA -22.3557 -6.42813 29.2061
CA 18.0789 1.70438 65.5942
CA 16.5626 17.0742 47.5164
CA 5.51076 9.17558 59.9659
CA 27.3495 -34.6689 37.5391
CA 32.1737 -15.6408 71.1117
CA 11.7229 -27.5 46.3153
CA 29.7949 -0.377128 64.1786
CA 15.9031 -25.2494 55.4834
CA 8.62471 4.69043 62.3034
CA 20.1914 -33.9684 44.5808
CA 17.4926 3.23974 39.8793
CA 19.0245 -13.4668 85.396
CA 32.9962 2.91288 62.1443
CA 22.4197 20.8805 45.417
CA 24.0293 -14.9389 73.6174
CA 35.114 0.847381 57.8932
CA 22.7066 -33.5405 43.6528
CA 26.5934 -17.7997 78.618
CA 12.8777 -18.0994 71.0155
CA 12.7227 -24.5816 45.8149
CA 3.31014 -4.6162 40.5081
CA 14.6246 -25.4096 50.7548
