489

CA 27.913 4.63192 48.1052
CA -25.3371 25.2788 56.1901
CA -14.6911 23.5228 75.4223
CA 11.8963 -12.5636 58.2637
CA 23.805 -10.7876 64.6387
CA -10.9008 -11.2717 20.3062
CA -35.2122 -0.443394 25.4378
CA -6.08085 0.0194853 33.3692
CA 30.514 4.66603 48.4477
CA -17.2509 30.4455 58.2811
CA 10.4216 -24.9664 35.5921
CA 25.1447 -4.61434 67.9058
CA 21.4004 -4.83027 68.9249
CA -0.730758 8.92309 21.0542
CA 23.793 29.272 45.6098
CA 30.9981 8.40658 44.7052
CA -8.40068 9.81009 48.1422
CA 27.3112 4.57296 52.4377
CA -7.97668 -15.2557 41.6097
CA 29.6956 15.8964 36.6698
CA -27.4121 -8.65701 65.4214
CA -0.959653 20.0417 61.1665
CA -19.452 8.74892 29.1235
CA 6.92177 38.2361 55.0779
CA -2.60774 11.7852 44.5376
CA -30.5813 11.5844 62.0921
CA 18.0821 -13.6082 56.9316
CA 28.9937 -7.6358 70.0872
CA 3.01267 1.32256 76.1098
CA 2.08996 20.2928 59.7161
CA 22.7309 -4.40301 42.1358
CA 19.3461 -1.71395 78.6681
CA 6.32672 16.3777 51.2279
CA 12.0399 -6.62167 53.2646
CA 15.2827 -24.9129 29.0386
CA 12.0839 1.6832 11.6666
CA 15.7032 -20.7106 33.8672
CA 25.7566 -2.10854 46.5954
CA 17.3723 -1.54167 68.6419
CA 20.1726 -7.61251 29.4365
CA -32.9437 3.37486 62.122
CA 33.82 -5.21744 69.8764
CA -30.4068 -10.3387 67.3471
CA 8.89736 -20.1142 39.5043
CA -17.2549 -14.8448 19.7443
CA 8.47464 -26.402 38.4143
CA -26.9278 4.90204 76.2204
CA 19.1358 -28.9754 74.3105
CA -14.5833 -12.6012 20.8818
CA 19.1148 -17.0315 41.0781
CA 30.5514 0.271368 57.5137
CA 37.0078 -3.45029 64.2609
CA 29.2608 2.84063 53.0075
CA 22.4856 -22.1521 48.3615
CA 13.4029 -15.1385 79.5478
CA -19.1969 26.9961 53.7315
CA 5.64855 24.471 71.4988
CA 25.7264 -15.8316 52.3889
CA -2.79317 12.2005 46.6358
CA -5.57457 13.5985 47.2238
CA -25.8708 -2.93956 63.6629
CA 6.93483 -12.0321 70.8044
CA 27.525 -11.5984 49.0005
CA 13.912 -22.7612 32.4701
CA -13.2349 16.9863 69.0812
CA 16.6921 -2.51796 40.3922
CA -8.55464 32.4816 47.4701
CA 34.9002 -10.1978 34.2448
CA -29.2658 2.83739 77.3824
CA -38.8593 10.9632 54.5761
CA 32.3762 -5.41635 46.1249
CA 31.244 2.33894 54.7843
CA 29.1102 -15.167 55.0876
CA 29.6392 24.0756 38.048
CA 4.714 22.4162 51.068
CA -31.121 6.5025 59.718
CA 14.1129 -7.36013 75.8467
CA 29.0628 -9.54401 54.4497
CA -10.5601 9.29896 80.2958
CA -24.5519 -3.32755 65.8165
CA 6.12481 -11.3708 76.6526
CA -22.5328 -2.11669 26.3991
CA -13.0582 17.7424 82.8999
CA 16.654 -3.32518 82.0227
CA -16.8643 -28.028 63.6603
CA -23.7145 -10.2562 74.0302
CA -10.4299 -3.68025 24.148
CA -7.14071 -23.5281 47.1329
CA 7.32603 -25.2707 37.1455
CA 16.48 -20.6299 40.3253
CA 12.4173 1.93926 62.2053
CA 19.1064 -3.83408 37.6875
CA 18.9442 -1.34449 50.6032
CA 9.37194 -6.73961 51.0855
CA 29.9046 17.9443 33.982
CA 12.1422 -26.9402 25.7226
CA -10.065 14.7615 27.244
CA 12.4957 -5.48602 74.4621
CA -22.7874 -12.7361 75.2632
CA 30.6258 -0.801193 50.771
CA -28.2402 -3.79492 27.912
CA -0.608702 11.6794 52.8889
CA -14.3735 37.4629 47.5683
CA -32.7833 7.0101 63.3354
CA -15.8365 15.381 82.1173
CA -22.4909 -14.4512 73.9749
CA 27.0322 2.90093 55.455
CA 19.3312 -2.27268 54.7571
CA 26.0807 -21.1045 44.7577
CA 5.82291 -24.0398 68.9707
CA 14.7405 -15.2888 77.597
CA -1.56319 3.96341 32.16
CA -18.2924 -23.5982 44.3079
CA -31.1952 2.78945 62.5527
CA -19.1626 -8.46919 30.3855
CA 18.9983 -6.12741 44.5993
CA -31.9752 2.09544 32.7082
CA 22.4959 -8.5528 70.3774
CA 9.90241 0.944924 77.2753
CA 8.85544 -7.56488 72.8314
CA 10.1429 24.6871 23.3947
CA 8.68431 -10.0213 71.0041
CA -10.0382 10.3243 77.2759
CA 29.2165 1.80869 48.6848
CA 16.8363 -18.9002 36.5683
CA 19.9434 22.432 41.4461
CA 11.1721 -17.7735 60.2101
CA -11.8457 -10.5019 22.4872
CA 24.6349 0.545197 47.1019
CA 4.28484 15.2743 45.8264
CA -16.7715 15.5095 35.1865
CA -15.0115 20.5904 75.7939
CA 25.0485 8.35418 46.5752
CA 15.9518 -5.5636 60.2709
CA 9.59025 -5.80699 72.7827
CA -5.7241 22.557 61.9147
CA 14.8275 -4.20921 77.507
CA 13.5696 -2.74473 68.4381
CA 28.7885 2.93364 46.6436
CA 32.6032 4.92942 52.9895
CA 24.4738 26.5837 51.353
CA 32.9839 -5.20463 50.7393
CA 25.5006 -12.5988 57.4165
CA 10.7953 -10.0455 72.4628
CA 14.4451 -10.9712 55.3965
CA 20.7259 -17.8275 53.7541
CA 18.964 -21.7807 52.5591
CA -21.1565 0.917744 24.9633
CA 4.41833 -32.3641 66.6589
CA -13.2807 -13.9563 16.9612
CA 27.572 -8.39779 69.2035
CA 20.8864 -7.2017 71.2938
CA 13.568 -22.2948 60.9771
CA 20.0209 -7.12706 62.3116
CA -23.236 27.4828 56.2602
CA 5.83304 17.1706 45.7237
CA -19.5134 20.7567 35.874
CA 36.7509 -0.323942 50.7892
CA -4.12677 21.4027 64.6555
CA -25.3159 -21.2655 66.209
CA 21.4407 2.70383 79.2138
CA 21.2458 -32.3041 54.0394
CA 9.3574 -10.2527 52.9583
CA 27.0038 5.11412 50.5462
CA 27.6603 1.21159 63.1258
CA 22.9397 28.0864 38.9521
CA -8.36891 -20.845 45.3866
CA 31.7421 4.71468 44.1672
CA -21.2266 29.6991 63.8445
CA 7.80311 -2.29898 65.5473
CA 23.521 -0.702146 47.8661
CA 23.2053 -18.5869 43.2552
CA 12.4234 -25.0044 54.0606
CA -7.6086 -5.76139 23.3667
CA -24.5842 1.87185 25.8339
CA -20.9586 28.5102 56.678
CA 7.29778 -5.48003 69.6698
CA -0.359388 20.1589 41.4864
CA -37.8206 13.0186 54.3137
CA -21.9745 35.9611 56.385
CA 19.785 -33.1619 58.6216
CA -33.7178 -7.01329 76.1688
CA 27.613 -6.76731 68.3732
CA 10.5301 -22.2934 31.2092
CA 25.1949 -16.2783 49.1849
CA 22.7686 4.10931 68.1514
CA 17.198 6.16913 30.9499
CA -23.2185 13.7584 29.0987
CA 6.66219 -28.568 68.2938
CA 8.5473 -8.86661 66.5538
CA 39.6401 -2.80305 53.3473
CA -4.20907 4.28565 31.6537
CA 23.1503 -2.86476 37.9839
CA -18.6543 14.3619 35.4825
CA 18.2128 -7.78419 66.3229
CA -18.2447 12.122 33.25
CA 29.4389 0.0435842 53.3176
CA -11.2338 -6.11259 77.8931
CA 18.5559 -21.6685 45.5604
CA 23.7216 0.988873 55.2286
CA 23.9742 -5.728 64.8418
CA 12.9215 -16.4077 74.0288
CA 1.44743 -5.53312 52.6944
CA 18.8662 -4.93124 36.1949
CA 24.5489 26.5694 48.4396
CA -22.4283 20.972 65.1965
CA 35.1364 -0.308169 53.2971
CA 27.3549 -0.670335 57.197
CA 5.57183 11.0371 81.7063
CA 6.42469 -32.7422 64.7542
CA -30.3848 1.72981 79.2505
CA -31.9669 9.8217 71.2158
CA 29.2655 -6.14171 67.9663
CA 29.4575 -6.63814 52.1614
CA -11.618 11.4431 35.6202
CA -11.887 14.1567 80.0876
CA 9.527 35.8832 54.0791
CA 4.31759 22.6513 70.0938
CA 7.28791 19.6699 50.3862
CA 2.39739 -31.2361 63.7621
CA -18.7203 -27.2664 44.8426
CA -6.24342 13.63 44.5881
CA -26.5717 -4.61341 22.1975
CA -14.1463 -14.6902 32.6903
CA 21.2148 22.9133 37.9791
CA 17.764 21.6869 58.5262
CA 2.2084 -29.8948 57.2172
CA 10.9472 -22.2211 37.6014
CA 20.3198 -1.23522 65.1176
CA 14.6325 -17.2242 78.9152
CA -7.58331 -21.3219 49.9332
CA 23.0691 -3.79924 66.891
CA 1.1851 -15.9411 60.6516
CA -2.7495 20.6801 65.6605
CA -13.6702 36.0271 48.5047
CA 5.51535 18.9214 47.8928
CA -13.1825 -12.3483 84.8202
CA -27.7361 12.5728 61.8434
CA 17.5627 -28.7153 75.2042
CA 15.7479 -0.370985 80.1088
CA -10.562 -8.45205 22.6142
CA -12.428 -16.643 43.7864
CA 0.993047 19.8189 52.0182
CA 37.7598 5.43401 53.1126
CA 22.4523 -0.967332 65.8331
CA 16.1291 -14.4816 60.4776
CA 24.0985 25.8905 42.3433
CA -24.6142 -2.74203 26.5396
CA 28.5866 -11.0792 32.7851
CA -20.9542 -1.24444 25.9765
CA -6.30694 -4.9335 19.5601
CA 19.9932 25.582 46.9241
CA -13.7423 8.13637 81.6743
CA -20.0514 -2.45409 61.3871
CA -6.88708 19.4896 65.0997
CA 22.6373 -26.6121 73.1416
CA 24.5352 -14.281 30.8147
CA 32.6093 -1.4543 68.7996
CA -10.88 -17.2481 40.6157
CA 26.2923 26.8278 39.0811
CA -26.7263 -5.69693 29.1466
CA 7.20729 26.2097 53.5301
CA 4.41135 11.6318 18.9182
CA 33.4387 -2.53385 47.4082
CA 14.6591 -0.0901538 70.0536
CA 23.4967 -4.8519 29.6065
CA -15.3585 -1.99258 28.3955
CA -14.5039 4.34901 60.5451
CA -21.7061 -5.97038 25.7562
CA -19.8281 33.5179 53.5523
CA 25.4178 -15.208 59.5174
CA -15.1143 0.0181351 61.1992
CA -14.595 -27.1571 63.3642
CA 9.91872 -21.2029 62.0834
CA 3.75051 -30.8157 65.3072
CA 5.7703 2.44195 62.6575
CA 26.9348 2.45084 47.7924
CA 12.6638 -24.453 59.8418
CA 21.392 -16.7558 35.1982
CA -10.0717 15.0399 79.5911
CA 21.5572 -4.99083 66.7588
CA 23.0414 1.20119 44.1643
CA 13.306 -26.9011 55.3171
CA -20.6857 -29.373 44.0874
CA 25.1087 2.047 53.9783
CA -4.49768 -18.2777 32.181
CA 33.2985 8.70006 43.6515
CA 13.1254 -13.5848 60.9842
CA 7.5089 22.529 53.6453
CA 7.87305 -10.2295 75.7064
CA 3.81241 -13.0627 28.8329
CA 20.0542 -2.75046 57.9602
CA 7.97757 -6.60311 78.8309
CA 5.86055 21.8675 53.9742
CA -0.6535 11.2725 43.3888
CA 26.1208 3.03555 65.0282
CA -1.80885 13.4623 24.2323
CA 18.3739 -3.11717 62.4162
CA -20.1167 -20.8328 73.1598
CA 8.68188 6.44697 60.1773
CA -5.24083 20.6202 36.0674
CA 12.107 -19.3214 33.4597
CA 22.5421 -1.90314 60.6039
CA -18.2859 -1.2002 23.0697
CA 8.40977 6.69054 10.6817
CA 29.1945 -16.0669 57.5449
CA 5.56508 -9.09991 74.7039
CA -9.41936 -3.6409 19.0392
CA 22.4185 28.1465 41.1152
CA 29.2624 2.89159 41.9125
CA -18.7712 -6.60524 25.2453
CA 3.81782 -8.53517 70.3368
CA -11.6968 10.6043 32.51
CA -20.2527 -2.40208 27.5352
CA 7.42224 -8.24835 74.9879
CA -1.88017 -24.053 37.5682
CA -5.25722 14.1922 43.0979
CA -21.3848 -23.7786 46.8092
CA 20.2886 -5.81794 38.2112
CA -20.8754 -5.11743 59.4905
CA -5.43088 -4.98535 22.2788
CA 27.2778 -2.80577 63.3552
CA 9.62001 -17.3789 55.4941
CA -22.0978 -1.41838 58.8886
CA 17.2833 29.8458 41.2374
CA -15.2942 12.8474 34.6956
CA 32.0917 1.91082 48.8043
CA -19.5488 -0.457898 27.1642
CA 6.44694 -8.75507 70.0692
CA 2.4991 1.99987 73.9076
CA -16.0034 -11.3316 21.4425
CA 20.3017 -25.662 46.627
CA -28.386 -6.89457 66.1686
CA 18.4402 -23.997 49.3187
CA -11.4003 -6.42152 23.2679
CA -21.0197 -12.2048 77.1367
CA -25.6745 -16.7077 37.0804
CA 24.3725 5.99603 65.9703
CA 24.5234 -18.7649 32.0714
CA -5.38094 22.1558 67.3721
CA -8.88605 -27.897 43.0975
CA 31.2114 20.2546 38.6231
CA -9.11643 -19.9017 41.3547
CA 29.5638 4.4952 44.4979
CA 22.2299 -9.55089 57.6277
CA 18.8307 -7.82797 70.355
CA 14.7885 -22.2357 45.3978
CA 4.74547 -9.39153 29.5347
CA -13.5223 8.86909 34.5552
CA 0.833525 12.0814 19.6212
CA 22.8092 -6.27493 27.2283
CA -0.767927 -11.5513 28.2541
CA 27.3831 0.084454 45.8045
CA 24.034 -16.683 62.8364
CA 13.7549 -21.6203 37.8459
CA -5.21702 22.3091 37.3749
CA 14.931 -17.0325 39.1198
CA 18.6405 1.17075 43.5096
CA -9.48581 -6.49243 22.5287
CA 22.1559 0.219422 61.5678
CA 4.42561 -19.8766 64.2387
CA 15.977 -3.95545 67.2708
CA 13.8846 -24.1932 39.3816
CA -21.6112 5.4748 28.0724
CA -30.6641 5.37422 77.6123
CA 18.761 0.060816 81.7586
CA 19.0801 1.75666 53.4857
CA 8.93248 22.6957 65.7339
CA 1.79046 -19.269 60.1207
CA 5.30108 25.4999 33.3155
CA -5.45627 20.7552 22.053
CA 3.82485 21.5353 53.1776
CA 8.10792 -25.1708 59.0758
CA -26.797 -8.57637 68.1186
CA 30.9997 -10.1832 34.0308
CA -4.17186 19.6118 63.1913
CA -13.9398 10.9658 34.5621
CA 13.4543 -21.157 40.5243
CA -6.44769 7.50322 75.6214
CA 24.4853 -7.33169 68.4065
CA 1.31748 21.7312 50.4189
CA -13.6993 -9.72938 79.4041
CA 25.669 -5.91759 66.1139
CA 8.46686 -21.7121 37.7042
CA 26.0036 -5.49679 34.1816
CA -20.007 -4.12717 22.5708
CA -14.4832 -15.3208 22.1811
CA 17.2796 -17.5186 32.3731
CA -17.9091 28.621 54.8009
CA -21.2266 -11.044 30.8037
CA 8.51999 27.2445 50.4384
CA -24.9733 -18.9086 66.8873
CA 20.7415 -2.14246 46.747
CA -16.3009 -14.2148 35.2313
CA 15.7359 -14.0052 72.8607
CA 13.402 -8.79722 73.8756
CA -14.5836 -10.9833 15.6783
CA -20.6412 20.9733 64.7553
CA 17.0838 -1.62573 42.0765
CA 7.4294 -0.849494 30.5846
CA 23.8633 18.6646 58.9955
CA -14.4222 36.2528 44.0949
CA 13.9062 -12.109 73.6274
CA -30.7918 -4.20703 28.9049
CA 18.9286 -20.3219 31.2356
CA 9.74625 33.6742 55.0417
CA -21.3239 -5.05114 27.5718
CA 8.85957 22.8583 69.5379
CA 19.341 -3.31049 66.4271
CA -3.77205 14.6347 47.0278
CA 10.557 -22.0872 46.8275
CA -12.6997 -29.201 39.8447
CA 24.6861 22.9131 57.2166
CA 27.0156 1.19148 50.6134
CA 33.8661 20.1962 37.6169
CA 17.9651 -18.3201 38.681
CA -7.44345 19.379 20.6607
CA -19.1569 -3.04524 31.9488
CA 4.33052 5.19373 11.3003
CA 15.9181 -5.50775 40.0928
CA -21.9096 -3.68398 25.1405
CA 13.2385 -2.79239 80.2161
CA 5.26338 3.3023 29.3253
CA 29.8374 17.8633 36.3254
CA 6.28904 6.22543 82.4194
CA 27.2039 -7.06029 64.4716
CA 24.1806 28.3383 37.0133
CA 19.3604 -11.0744 28.3975
CA -10.0848 14.7532 29.9066
CA 22.7383 19.6699 38.0602
CA 24.6679 -10.1726 59.8753
CA -20.2423 12.5732 36.9558
CA -1.09058 7.27874 50.3881
CA -10.1535 -6.5871 70.0276
CA 4.37477 -1.29291 74.5941
CA -2.11491 20.7777 55.0247
CA 25.9386 27.884 45.8743
CA -17.4653 -0.317047 56.3551
CA 10.8679 27.089 51.6219
CA 28.5328 7.1416 49.3627
CA 16.5246 -5.6254 62.0355
CA 8.94928 -9.97246 73.9269
CA 4.64685 25.16 51.8019
CA 11.8919 -3.96255 82.7616
CA -22.4162 -1.9965 64.0841
CA -3.06625 19.1681 60.0765
CA 32.5296 6.90538 46.4854
CA 16.3137 -0.764232 39.6034
CA -21.0572 0.797556 62.3266
CA 4.21398 -4.56378 69.0483
CA 27.8309 -15.3471 53.0644
CA 28.0359 -5.46119 54.5905
CA 6.80486 -1.18919 27.9907
CA 8.98586 -0.29433 64.9503
CA 8.37278 -8.7209 68.6844
CA 6.35341 5.66925 10.1038
CA -1.16845 18.8088 40.0726
CA -8.14 -30.3939 41.5193
CA -19.7749 26.371 55.5259
CA 17.4932 -9.77605 68.8845
CA 25.5707 -12.3533 59.5695
CA -1.45034 19.8068 37.7373
CA 5.25773 12.9029 47.3364
CA 26.0036 24.6079 41.1449
CA 23.4241 -3.52182 61.0597
CA 11.5179 2.92587 73.0669
CA 24.5071 -3.15791 40.5844
CA 25.9276 -9.82806 67.8506
CA -23.4558 -6.95558 26.4303
CA 26.0481 3.65155 45.632
CA 7.47402 -1.46742 76.5648
CA -8.03392 -6.12116 67.3609
CA 28.957 4.41771 55.8316
CA 19.6447 27.8957 45.0223
CA -7.30368 -5.34322 25.408
CA 18.831 -13.4511 52.746
CA -30.4687 0.965654 77.2324
CA 20.8334 6.00062 28.7353
CA 29.5837 -4.33864 49.2127
CA -5.81609 0.389465 36.0086
CA 3.24664 -9.02645 76.7921
CA 29.2639 5.97586 45.6066
CA 14.573 -13.5801 76.9859
CA 5.57037 0.681226 62.1743
CA -20.8111 -0.429739 34.7091
CA 3.19484 35.1802 39.5341
CA 9.76315 -27.3146 39.5423
CA -2.07372 -18.1868 36.3367
CA 21.713 -4.32073 28.407
