489

CA 42.1262 3.15226 26.3176
CA 21.8148 13.2705 41.3294
CA 6.13015 -11.2046 70.2954
CA 5.05088 -9.47063 49.6893
CA 8.30076 -22.8178 40.5332
CA 29.645 5.4793 62.4869
CA 28.1492 -16.1929 75.2136
CA 16.1621 8.16176 42.4805
CA 45.0592 -6.50192 32.3403
CA 2.57373 -17.198 54.775
CA 39.6963 -2.35889 33.5855
CA 19.2045 16.6114 43.2731
CA 13.6411 7.69592 57.6211
CA 18.5384 -4.46136 66.7784
CA 28.8177 15.175 39.4376
CA 13.9506 -17.4565 52.0532
CA 14.8427 -6.28969 65.3091
CA 29.5986 4.72192 47.5073
CA 6.11862 -21.9506 46.5937
CA 2.91448 -18.6695 52.5805
CA 13.6888 -8.55164 81.1731
CA 13.0573 -15.1338 78.841
CA 26.0382 -10.4639 54.6379
CA 3.85855 -27.801 67.0025
CA 17.6766 4.42467 69.9285
CA 16.2168 15.3445 41.4877
CA 10.3161 -14.28 69.7629
CA 20.8109 -12.7448 86.443
CA 4.60056 -24.8668 78.251
CA 20.8536 -34.3369 56.1873
CA 34.2561 -43.1907 40.2697
CA 11.7333 -18.1461 73.1116
CA 10.1116 -10.0832 46.1122
CA 29.1053 4.25664 53.5594
CA 26.9718 16.5114 43.9668
CA 14.1636 -11.0344 23.1635
CA 12.2446 -14.1515 32.3942
CA 44.0073 -3.40108 37.6243
CA 5.55765 -15.2252 65.8751
CA -3.9306 -19.6812 45.9558
CA 22.2488 -19.4066 55.1717
CA 17.0466 -13.4366 23.8261
CA 19.7259 -21.6901 59.6536
CA 18.9927 -4.34625 64.4133
CA 8.81606 -20.1677 64.1771
CA 7.34535 -24.2919 49.7148
CA -0.0131355 -7.8325 78.6662
CA 30.0862 -16.0157 28.3931
CA 22.5366 -14.7418 68.6189
CA 23.3705 8.36811 42.8875
CA 15.0432 2.83908 69.824
CA 16.5775 -31.9912 45.5694
CA 15.0033 -8.22892 64.5632
CA 32.092 -33.2252 45.1127
CA 15.5798 -14.2522 67.0843
CA 18.2371 -12.3846 89.8021
CA -7.81484 -16.4913 44.9467
CA 17.9007 -11.7316 70.407
CA 6.25479 -27.1123 69.4932
CA 23.3148 7.03395 39.2599
CA 29.6263 -38.8762 42.4519
CA 23.6368 21.7875 41.4377
CA 25.6073 -22.4836 47.7336
CA 16.6942 -28.695 60.2651
CA 9.31972 -20.1812 78.9953
CA 18.5482 -25.8471 78.5621
CA 23.9955 -36.1395 53.1342
CA 25.7224 -11.4259 79.7628
CA 38.3607 -2.40257 62.5835
CA 20.2364 -19.9136 21.9091
CA 26.8119 20.1867 41.6772
CA 14.2033 14.5106 43.433
CA 9.40209 -11.7416 77.1429
CA 4.42361 -15.5063 47.6657
CA 0.0626528 -17.5872 50.8854
CA 4.5723 -20.0614 59.5917
CA 18.1291 -4.85268 60.6407
CA 11.3284 -18.9261 18.8723
CA 8.39684 -18.2169 75.5125
CA 18.394 -26.4359 57.6655
CA 33.8624 -3.13367 32.2226
CA 23.9762 -10.675 89.9901
CA 16.9568 -14.4537 20.5157
CA 11.392 -10.82 37.9065
CA -2.8919 -3.42783 63.7656
CA 16.3841 -26.1263 46.9888
CA 17.2894 -16.809 85.0614
CA 8.64918 -5.11091 49.2387
CA 1.84033 -10.1614 48.8977
CA 10.2239 -9.65472 25.5457
CA 19.2121 -12.3392 82.7469
CA 14.0684 -11.7136 33.5414
CA 13.1338 -23.6485 50.0444
CA 17.1601 -8.79738 22.175
CA 21.0902 15.7241 30.0874
CA 6.43635 -26.2842 47.9229
CA 37.2345 0.243462 58.0959
CA 1.51961 -13.0768 48.1903
CA 25.018 15.6294 43.3651
CA 22.9019 -31.9198 42.8372
CA 17.8308 2.24037 62.1616
CA 9.56002 -17.5773 63.9228
CA 1.50585 -11.5365 65.4297
CA 8.56125 -25.0298 48.3147
CA 17.0358 -6.51488 60.7562
CA 4.43999 -0.157814 30.6993
CA 10.1691 14.3092 68.5638
CA 18.2236 7.05043 46.5047
CA 16.7526 -15.4781 71.5829
CA -4.6036 -12.9135 46.0788
CA 18.882 -20.3702 85.0066
CA 23.9398 -16.8808 73.8539
CA 0.358889 -12.4768 76.8305
CA 15.7268 1.52837 64.7317
CA 19.0499 -22.3337 77.9987
CA 26.0298 -5.65772 33.4847
CA 14.8072 -10.7402 61.098
CA 20.8047 8.35122 41.7451
CA 5.95983 -26.0372 49.9411
CA 1.12087 -11.0334 41.8931
CA 24.8332 -3.60948 69.3637
CA 8.88685 -10.3046 42.5715
CA 10.6684 5.28166 61.6139
CA 7.94646 -27.8201 73.5785
CA 16.8446 -7.61366 52.0659
CA 15.8368 6.51557 53.3728
CA 13.4637 3.25981 67.5934
CA 24.1558 -6.57576 64.2829
CA 23.8284 -18.9821 46.5627
CA 25.4066 -36.3748 41.5418
CA 45.2391 -1.78801 32.6074
CA 4.50246 -13.7244 64.5249
CA 24.5619 -6.48713 88.2259
CA 26.921 -23.9639 59.5678
CA 13.9798 -26.1367 47.1294
CA 17.8941 -12.1964 84.1199
CA 10.2828 -12.7454 31.9662
CA 12.4141 -16.3903 53.1389
CA 6.11903 -7.50783 55.0733
CA 24.2096 19.3557 43.4503
CA 22.4935 12.7115 34.7046
CA 33.5273 6.5885 62.2659
CA 12.2393 -20.8684 73.0305
CA 16.7031 7.9 49.46
CA 23.3105 1.63462 29.5122
CA 18.235 8.92815 47.0962
CA 1.47091 -21.1497 61.7444
CA 16.1649 -8.26503 61.2265
CA 22.4269 -6.96246 66.5285
CA 25.4897 1.98926 66.2661
CA 27.685 -15.458 53.4556
CA 6.03674 8.41276 62.7476
CA 3.30077 -12.6196 44.3125
CA 27.7254 3.56556 55.6901
CA 9.45545 16.732 67.0177
CA 3.82077 -26.658 72.9688
CA 14.6222 7.31163 42.089
CA -2.3826 -15.8366 73.6129
CA 26.2885 -14.3596 54.2441
CA 9.05674 13.0726 64.0714
CA 17.1914 -5.71587 62.9755
CA 41.5388 5.43682 39.9908
CA 7.92427 1.02286 64.6045
CA -4.72683 -6.86471 80.5542
CA 37.5312 5.36175 69.6125
CA 18.88 -26.4106 49.5488
CA 5.65337 -7.21819 34.1404
CA 17.3777 -2.49854 69.1933
CA 28.2268 -44.054 49.7163
CA 15.0131 -29.468 39.109
CA 17.5603 9.69805 50.3271
CA 24.8748 -9.82798 52.7435
CA 10.9042 -11.8231 69.2845
CA 6.69799 -9.26266 83.026
CA 28.4708 11.2385 42.0253
CA 30.8033 5.63504 57.5786
CA 7.95578 -17.2649 71.8663
CA 11.3995 -11.8905 80.3102
CA 44.6835 -0.749059 39.5185
CA 16.0647 4.61327 63.9786
CA 39.7519 -3.90829 29.7973
CA 17.0302 -13.2161 80.1869
CA 42.3852 1.2895 32.5362
CA -2.78698 -9.87813 86.0137
CA 18.9573 -26.6691 53.0207
CA -21.6065 -0.476802 63.8131
CA 26.5453 -18.0064 71.5667
CA 11.2239 -21.787 82.1189
CA 19.9463 9.10413 69.9659
CA 20.1746 -16.0871 60.5514
CA 1.77601 -22.7566 60.0435
CA 5.31291 -17.1985 74.1178
CA 16.0043 -3.64983 68.7635
CA 21.0657 -33.1576 38.1273
CA 33.1428 -43.12 42.5941
CA 33.2766 -26.8544 81.5909
CA 19.8086 25.7163 44.0295
CA 24.1658 3.2792 41.6434
CA 5.19766 0.431242 64.7506
CA 11.566 -7.33358 47.8726
CA 6.30952 -18.4325 77.7319
CA 8.20802 -22.6474 44.1095
CA 24.8514 -17.8616 27.5793
CA 13.8348 1.46546 57.8268
CA 6.38044 -21.2071 65.0652
CA 14.6707 -28.6008 42.4842
CA 20.5986 -9.03271 24.4951
CA 41.864 2.44263 31.1763
CA 17.3734 -7.59498 42.9085
CA 20.885 5.20771 42.2064
CA 23.4113 -15.0014 47.2509
CA 21.7965 -17.9717 82.0619
CA 16.1769 -17.9836 78.2948
CA 6.07504 -1.26474 65.6309
CA 6.35721 -5.46803 36.4878
CA 1.14588 -7.08572 49.8884
CA 27.9231 7.19978 31.9056
CA 19.9299 -14.804 51.7034
CA 30.4142 -5.90763 51.0102
CA 34.692 7.74956 59.4934
CA 27.201 -6.98996 66.3407
CA -0.0679308 -13.0923 73.8739
CA 3.07434 -15.8643 52.4432
CA 43.0486 -6.21157 27.9584
CA -2.88494 9.46723 63.9101
CA 19.7561 -28.3324 41.737
CA 38.4528 1.99447 59.5137
CA 33.72 -43.9986 44.0933
CA 28.5187 -4.28517 65.0511
CA 23.1043 3.04153 69.3006
CA 13.8053 -15.8228 14.5083
CA 23.3993 17.111 42.9297
CA -5.1466 -14.6709 46.159
CA 32.9442 -14.5012 29.9006
CA 14.2889 -7.08103 25.6339
CA 18.3164 -14.9603 86.8764
CA 45.0674 -4.92255 35.4241
CA 39.9951 -3.69358 64.179
CA 19.3466 -29.4659 51.4213
CA 12.5912 -21.5704 47.0035
CA 20.9395 -16.0785 24.8126
CA 18.0354 -7.15621 83.1341
CA 19.9423 -19.526 75.059
CA 6.08666 5.36428 61.9566
CA 14.5617 -28.0897 47.9757
CA 28.6008 -12.2574 29.9887
CA 40.6347 -1.26278 38.256
CA 26.527 -20.844 80.1121
CA 13.4212 -2.45591 69.0236
CA 29.1934 -24.2208 78.8113
CA 30.8639 -37.4245 43.3861
CA 6.65804 14.9768 66.9618
CA 35.7012 1.24556 32.428
CA 9.45002 5.45455 60.1359
CA -2.42827 -14.0325 76.7395
CA 0.745926 -19.4104 65.3604
CA 36.6286 3.38768 59.311
CA 17.1264 -27.4238 58.8776
CA 6.66119 -19.507 79.8159
CA 6.95669 -16.018 61.3721
CA 33.004 -47.9971 43.3119
CA 6.5302 -15.8574 73.7599
CA 21.3912 -28.7689 14.1806
CA 7.88293 -19.1567 40.6449
CA 27.1594 13.2678 44.4425
CA 36.2175 -2.35862 31.6916
CA -0.969806 -8.03176 80.2286
CA 13.4953 5.33987 68.6459
CA 12.2282 -15.0014 73.0331
CA 0.444866 -15.3932 75.5649
CA 4.29956 6.42349 58.2666
CA 17.0057 1.62702 57.9449
CA 14.886 -22.1536 46.0449
CA 18.0797 -12.2738 58.036
CA 20.4561 -33.8052 41.2638
CA 39.7102 -2.29649 27.4356
CA -3.12374 -9.93 44.5268
CA 26.9456 -22.9172 56.5594
CA -2.09561 -13.543 45.0662
CA 6.94462 -17.3747 66.012
CA 5.68973 -7.02356 67.1179
CA 20.0815 -13.8012 84.9892
CA 13.436 14.1295 48.2925
CA 19.9078 -10.8273 65.3725
CA 19.8694 -12.4305 70.4811
CA 18.6486 12.5779 50.7514
CA 39.9385 -5.87457 39.0797
CA 40.5301 -2.45542 62.0778
CA 6.99484 -20.0051 58.359
CA 31.3026 -10.7035 31.1072
CA 28.8544 13.7355 41.2755
CA 25.8863 20.6652 43.9169
CA 27.1746 14.7616 42.1597
CA 5.01586 -1.61935 27.9903
CA 15.2387 4.36483 73.0267
CA 19.5721 12.7381 41.2383
CA 13.933 17.8148 40.0612
CA 10.6947 3.7004 60.0324
CA 4.64074 -5.68889 28.6382
CA 14.4941 6.11041 66.7988
CA 25.6041 -14.9735 78.6543
CA 24.4956 16.4708 46.7159
CA 19.123 -5.36723 45.6845
CA 2.79658 -23.6297 67.0343
CA 47.8322 5.98435 37.6186
CA 30.8435 18.3769 45.7611
CA 26.0804 -6.67881 51.6852
CA 27.1795 -26.9427 81.4733
CA 15.4362 0.286678 69.6653
CA 1.62571 16.9481 65.5975
CA 21.1001 -18.3962 59.4627
CA 24.9293 -24.116 62.8499
CA 24.7353 19.0892 36.6809
CA 29.6387 9.43988 41.2706
CA 0.442702 -11.7641 46.3751
CA 35.8693 6.29079 69.0357
CA 12.9409 -20.9119 50.9195
CA 18.8333 -34.025 48.4248
CA 12.4488 6.64294 58.9939
CA 16.994 -18.4536 29.4458
CA 22.2253 -39.2375 38.9356
CA 5.72977 -20.1618 76.1828
CA 19.9793 2.85583 47.5075
CA 35.5911 -45.5508 46.8059
CA 24.5082 -8.46303 50.3209
CA -21.8937 -5.92004 26.1968
CA 13.224 -11.4492 68.8672
CA 29.0783 -17.798 77.974
CA 44.3707 -7.15671 38.9289
CA 45.8653 -10.6308 41.8008
CA 13.7273 -11.108 27.4017
CA 26.7878 -35.714 51.9508
CA 10.4612 -11.6217 71.3821
CA 19.2074 -10.068 59.4186
CA 14.9736 2.62557 60.2625
CA 6.96864 3.00735 68.4305
CA 43.412 14.6951 35.9137
CA 9.561 -11.3578 82.403
CA 13.1565 2.91547 60.0585
CA 16.3288 -19.5742 69.2483
CA 7.41017 9.44623 55.6866
CA 21.0243 -35.1958 37.5276
CA 31.9926 -0.829016 63.6269
CA 15.5435 -13.9145 29.5397
CA 4.24203 -21.2717 65.1055
CA 12.5064 -27.5341 42.1087
CA 3.45587 -16.3326 56.3735
CA 5.57104 -24.1843 80.8207
CA 29.3159 -24.7114 81.5411
CA 3.89453 3.28143 66.9818
CA 26.165 -6.1184 84.8318
CA 15.6107 4.90246 60.3071
CA 29.5787 -16.7038 46.3256
CA 26.7048 -12.654 31.9732
CA 30.5583 14.0303 45.414
CA 11.9201 3.93498 70.1689
CA 14.326 -15.7814 70.2555
CA 22.0745 -17.5708 87.3124
CA 21.0246 14.5022 45.9743
CA 18.8011 26.0753 47.9886
CA 26.9983 -2.90212 26.2838
CA 9.54226 -13.2215 81.3402
CA 25.9385 -32.2428 50.8872
CA 25.0611 7.61129 41.8438
CA 8.20282 -21.268 39.0852
CA 1.64067 -14.6282 65.1943
CA 18.7127 -13.1923 72.7056
CA 15.7053 1.1018 62.2338
CA 18.8447 -14.1877 23.6839
CA 23.9083 -18.071 75.7589
CA 41.7596 -3.0683 60.6706
CA 16.6036 -1.44224 45.0657
CA 20.7837 25.9861 46.2274
CA 42.8909 -1.22001 33.0754
CA 27.1807 -12.9116 51.8128
CA 46.9318 1.26136 35.0042
CA 6.06577 -27.3647 72.0101
CA 17.3468 -5.64774 65.2448
CA 25.2202 -1.80678 22.7661
CA 0.922257 -30.3574 79.7299
CA -4.67828 -5.29862 82.3084
CA 3.49635 -11.3306 79.1719
CA 3.47816 -25.9088 77.2882
CA 32.0475 15.336 44.9129
CA 31.9247 -16.1389 78.5189
CA 24.3067 14.9352 44.9052
CA 29.1493 5.00714 55.9445
CA 21.9244 19.1698 43.8163
CA -24.5895 0.0410428 64.4524
CA 11.3337 10.1623 58.8383
CA 23.4876 -9.86572 31.8866
CA 7.89009 -14.2642 65.6482
CA 14.4366 -24.1583 70.1506
CA 14.3961 -19.5462 15.5785
CA 30.2643 -4.1428 30.6828
CA 12.9615 -27.4137 50.1549
CA 21.1373 -12.8783 81.3517
CA 31.6241 -23.0787 84.2931
CA 10.7172 -16.3813 32.3915
CA 28.8919 -34.8579 48.4571
CA 0.643776 -17.8262 53.7126
CA 9.91829 13.0672 70.5256
CA 31.9735 -46.719 48.7489
CA 3.30457 -19.8466 49.3295
CA 11.5137 -11.9447 77.1534
CA -0.683981 17.2633 65.7544
CA 28.1331 -2.73066 68.0989
CA 9.33685 -10.0729 23.4195
CA 4.54523 -13.5508 70.208
CA 15.0597 0.692661 59.1156
CA 10.6397 -23.897 45.2379
CA 13.8614 13.6833 56.864
CA 34.712 0.621806 67.8417
CA 17.8962 15.4116 38.9722
CA 20.6189 -10.4551 91.8708
CA 27.3637 0.923074 19.5952
CA 32.25 1.50499 63.4843
CA 24.9664 -3.95457 51.4274
CA 14.5688 -10.6411 48.8106
CA 3.95538 -17.3375 63.3438
CA 3.2176 -11.6653 49.7179
CA 18.0002 16.2935 41.1519
CA 21.5708 16.5589 37.1591
CA -0.298626 16.4497 68.6878
CA 23.2689 -21.4936 47.653
CA 11.6052 -7.5365 50.3179
CA 2.25475 -19.9537 57.6869
CA 20.833 -31.6736 16.4961
CA 1.5849 -35.1822 80.111
CA 21.3144 -29.6227 53.0525
CA 15.5355 -11.2133 45.5929
CA 23.8807 -17.6328 52.0413
CA 18.639 -20.1698 77.5319
CA 27.4253 -2.21193 65.488
CA 14.854 2.58794 73.8645
CA 17.9685 -35.5749 52.3166
CA 26.4606 17.3501 40.827
CA 19.6158 -32.3555 55.1497
CA 5.6353 -4.75355 80.3553
CA 26.1793 -8.31452 53.2306
CA 11.9878 -18.2699 67.2609
CA 16.6691 -33.7887 36.5731
CA 13.2311 -15.8203 16.7521
CA 22.4787 -33.9628 54.0816
CA 32.5422 -4.72261 30.6028
CA 11.3004 15.4927 43.7648
CA 29.7241 -11.7515 31.9378
CA 6.20946 -10.5965 81.7945
CA 12.7224 -5.29331 67.8781
CA 2.89862 -27.9532 69.7481
CA 7.03788 -17.5798 79.5799
CA 30.7139 2.98561 58.2911
CA 18.9972 14.0917 39.8873
CA 29.659 2.15432 51.9993
CA 15.3684 18.911 42.8806
CA -1.77668 -7.29285 83.4804
CA 7.8737 -15.5979 77.4181
CA 0.335659 -10.6552 74.8895
CA 28.2075 6.63643 43.8126
CA 6.77816 -12.9585 80.3756
CA 26.3213 -30.2498 44.247
CA 14.9429 -31.2162 44.0308
CA 39.3688 2.89175 61.0239
CA 20.3884 -4.77086 67.9937
CA 18.9857 -32.5946 47.0837
CA 36.1482 -1.37833 60.7447
CA 15.7292 -6.33012 51.0144
CA 27.4889 20.1338 46.2733
CA 35.045 -12.1022 33.636
CA 13.7705 -3.63896 49.4946
CA 12.04 8.61426 57.4847
CA 32.1737 -15.6408 71.1117
CA 20.9895 -31.1341 46.2028
CA 28.0327 17.579 42.4797
CA 15.9031 -25.2494 55.4834
CA 9.92538 -18.4247 73.9038
CA 4.55767 -10.4726 80.5382
CA 11.9048 6.33522 56.5911
CA 23.0011 -0.796044 28.3096
CA 21.011 -7.5081 67.893
CA 22.4197 20.8805 45.417
CA 24.0293 -14.9389 73.6174
CA 12.4151 -11.3322 47.6732
CA 22.7066 -33.5405 43.6528
CA 26.5934 -17.7997 78.618
CA 11.6738 -12.5212 74.8275
CA 34.7777 -1.24101 58.1381
CA 8.98563 -8.70723 65.8025
CA 14.6246 -25.4096 50.7548
