489

CA 5.42786 -10.1722 52.8433
CA 21.4804 -25.3741 65.5364
CA -7.67332 -11.7852 42.296
CA 15.0171 -20.7661 45.4933
CA 47.9969 -12.7156 46.0993
CA 17.9725 0.419647 59.9187
CA -0.995071 -4.94279 83.6128
CA 15.1377 15.4944 47.0408
CA 26.3135 -22.7603 79.1323
CA 15.2594 -19.0768 46.1591
CA 43.3401 -1.62538 26.8666
CA 21.2433 -18.7894 65.8043
CA 13.6411 7.69592 57.6211
CA 24.0258 -25.6888 62.4247
CA 11.1485 -6.64663 84.9521
CA -6.59803 -13.2099 39.7346
CA 5.68811 -5.90589 39.0896
CA 33.8826 -48.8061 43.0807
CA 33.4677 -14.4097 28.1397
CA 34.3996 -5.71713 39.0518
CA 9.64953 -21.056 84.0948
CA 28.5833 14.608 58.4024
CA 5.96315 -22.1308 75.6614
CA 33.4963 -12.6181 39.0722
CA 30.3741 -7.32069 28.6271
CA 36.6732 -9.30797 38.5413
CA 30.8051 -1.13043 25.2448
CA 16.4156 -18.6665 53.6045
CA 17.6889 19.0705 34.402
CA 30.6582 -1.98816 61.1267
CA 12.814 -9.55135 28.9509
CA 18.3412 -13.6124 38.5306
CA 18.2675 -10.8825 73.7973
CA 29.036 20.855 43.2538
CA 10.8017 -23.4954 54.7486
CA 16.0282 -26.5595 36.4095
CA 14.3353 15.2451 32.005
CA 8.47115 -11.0252 23.8011
CA 31.5272 10.5257 58.9716
CA 24.8592 29.3615 47.4983
CA 8.49827 -23.8131 52.1513
CA 2.98764 -18.7369 50.0274
CA 44.9313 2.93495 34.2245
CA 34.3872 -2.63031 30.9466
CA 10.0464 -3.31279 35.9301
CA 12.6683 -5.42846 65.3892
CA 28.3671 1.93107 54.5524
CA 10.1308 -25.0106 43.417
CA 14.22 -5.37505 82.9129
CA 31.7965 5.03674 61.2251
CA 31.2864 -37.9404 53.1407
CA 18.1886 -10.8123 70.9761
CA 28.2889 -17.3722 31.6822
CA 27.9657 -36.5673 44.4228
CA 29.1395 2.98622 56.8995
CA 23.4207 -2.34228 24.0464
CA 24.008 0.997922 21.3986
CA 13.51 -8.2569 82.3682
CA 16.8301 -7.47223 66.345
CA 8.51526 -20.1454 44.0913
CA 45.6982 -12.3938 51.9178
CA 22.2865 -0.453434 25.8148
CA 35.1338 -47.4545 42.5868
CA 32.3122 -39.9229 46.0829
CA 27.2216 -17.3297 70.285
CA 23.4097 10.6248 48.3237
CA 10.3883 -24.2675 60.7242
CA -8.27752 -6.79446 43.5017
CA 22.8728 -13.3604 51.5139
CA 36.8851 -0.171586 29.3693
CA 16.2883 -20.8451 62.1655
CA 29.0132 12.2336 55.8196
CA 21.5184 1.3042 53.7638
CA 13.6132 10.8325 53.9956
CA -7.0963 -9.70793 42.8833
CA 19.1222 -20.5984 52.5903
CA -2.85432 -4.71411 80.5721
CA 11.3284 -18.9261 18.8723
CA 8.4856 -13.9457 74.938
CA 43.6402 1.61833 34.4788
CA 26.3924 -22.1481 30.1625
CA 30.676 6.62354 59.2027
CA 14.3633 -16.8908 55.7272
CA 14.3122 -1.77963 65.6439
CA 6.66034 -24.4809 60.8832
CA 26.5574 24.775 45.5388
CA 33.9112 -2.2783 28.4493
CA 29.7104 -6.03524 51.4948
CA 0.943062 -19.1273 46.9575
CA 24.7744 -15.4515 79.8868
CA 24.0035 -14.989 75.7117
CA 27.354 30.2044 49.0159
CA 1.25612 -13.1721 82.3226
CA 36.5012 -4.04548 28.3426
CA 47.7702 -10.0303 50.9855
CA 13.2941 -14.3047 71.492
CA 36.4399 -43.681 41.2664
CA 26.5838 6.42648 44.8263
CA 8.92292 -22.1426 85.946
CA 10.1638 6.00297 47.8459
CA 27.5749 -17.2325 81.1736
CA 9.80812 -26.4896 45.7509
CA 10.6111 -9.77587 72.1873
CA 19.7724 -23.6129 38.7485
CA 22.2894 -19.8368 46.0236
CA 22.7837 1.64715 57.3754
CA 15.112 -19.1722 66.0448
CA 18.2236 7.05043 46.5047
CA 10.8164 7.50376 58.7457
CA 16.558 -24.1074 54.8106
CA 30.7651 3.283 65.4192
CA 17.5605 -22.8645 48.9467
CA -0.636583 -26.1555 66.4801
CA 21.7006 -24.5379 63.1304
CA 19.0499 -22.3337 77.9987
CA -4.93725 -9.65327 39.8226
CA 19.6373 -31.6383 56.7025
CA 20.1094 15.958 42.9326
CA 7.94121 -14.397 82.3494
CA 20.7657 -27.459 60.5559
CA 10.1274 -4.22877 47.1204
CA 21.3521 -32.6762 48.3446
CA 33.5069 3.47895 52.7483
CA 7.79957 -21.5039 83.8461
CA 21.999 17.7551 38.044
CA 45.2321 -5.11403 26.4152
CA 17.3967 -21.7399 37.4227
CA 27.9055 -21.7422 29.0641
CA 23.8284 -18.9821 46.5627
CA 18.8113 18.1681 28.5538
CA 28.8609 -11.5785 49.3854
CA 15.767 -5.26974 62.6933
CA 22.7703 -13.2558 73.4682
CA 43.7615 -6.14055 36.4823
CA 33.11 -43.7717 50.3647
CA 17.8941 -12.1964 84.1199
CA 21.1643 -34.8752 39.1472
CA 20.5114 1.77076 56.8163
CA 26.1785 9.48264 39.6614
CA 49.1644 -4.97854 33.7869
CA 41.6825 0.550654 26.97
CA 14.6137 -16.1412 68.4523
CA 8.19916 -7.18155 64.4736
CA 36.2409 -2.44161 69.3207
CA 20.0427 14.6044 40.7691
CA 22.4904 -24.5711 51.0496
CA 24.3322 -1.11913 19.6267
CA 27.2647 4.35381 43.1787
CA 50.646 -9.53897 46.4721
CA 16.5881 -11.1824 26.8067
CA 19.5577 -21.4418 39.6452
CA 31.826 10.5154 54.0984
CA 15.1413 -25.9756 54.0437
CA -2.61028 -11.5019 37.543
CA 14.8941 -28.4777 38.8892
CA 38.1447 -0.394589 56.3342
CA 16.4472 -21.6792 50.492
CA 5.40801 -17.8671 78.567
CA 36.2886 -46.5705 53.333
CA 3.85216 -26.8466 85.33
CA -0.730701 -27.4555 64.9874
CA 12.242 -18.6361 16.1913
CA -4.34131 -6.38527 44.7286
CA 40.7691 -2.35793 37.8821
CA 20.4565 -8.03267 67.395
CA 18.6562 -21.2258 63.0134
CA 8.8667 6.49121 64.9779
CA 18.222 2.66448 47.0452
CA 17.3597 4.15522 64.3683
CA 14.9436 -18.843 62.7834
CA 25.2692 -25.2739 63.8278
CA 19.9972 -6.93618 76.5152
CA 40.6516 1.08159 39.939
CA 6.69799 -9.26266 83.026
CA 27.6338 -50.1298 43.6773
CA 3.45224 -20.5573 44.9485
CA 26.6078 -41.0459 51.0394
CA -1.53947 -10.1321 38.5889
CA 36.8033 0.810662 67.7718
CA 23.2817 -3.39812 19.7399
CA 9.6246 -20.9827 54.7139
CA 46.6361 0.0613315 30.3954
CA 12.3176 18.4767 47.0083
CA 18.0039 -14.6665 67.8664
CA 10.7524 -10.2899 19.1396
CA 29.7665 -23.5487 32.3361
CA -0.976452 -12.9048 41.5944
CA 26.2546 -6.55895 23.6974
CA 24.4874 -13.9631 71.7418
CA -7.17834 -11.5071 44.9911
CA 19.8371 -10.6112 75.1239
CA 16.9455 -14.6611 36.2935
CA 19.7429 -19.8336 40.8494
CA 1.55264 -18.886 56.5419
CA 2.09888 -21.8561 61.3279
CA 14.3149 -9.20044 49.9179
CA 8.78521 -27.2374 44.4489
CA 28.3874 -11.7447 30.5177
CA 10.4412 -26.7161 40.5436
CA 20.218 -9.29071 62.4197
CA -2.91056 11.008 62.411
CA 2.273 10.8832 60.8656
CA 28.6881 -20.5512 82.2284
CA 3.60598 -26.7707 56.4544
CA -4.40249 -11.8059 42.8852
CA 6.10402 -1.72816 32.7205
CA 37.2735 -48.7344 53.7914
CA 33.5052 -42.7704 53.1485
CA 3.8645 -0.97549 31.7954
CA 33.1651 -6.9126 25.558
CA 30.7075 -22.7614 29.2483
CA 28.3445 29.641 45.9125
CA 32.2387 -10.4248 32.8097
CA 18.8756 -22.2739 51.9678
CA 18.0568 -19.4826 59.5476
CA 31.1182 -12.9285 75.3224
CA 31.4169 -47.2382 44.2349
CA 42.3612 -1.08175 36.6133
CA 14.109 -11.1622 70.8857
CA 16.1087 -12.4035 68.4219
CA 6.43879 8.98861 58.9659
CA 48.2642 1.02363 37.4302
CA 36.2493 -15.5406 32.0966
CA 14.4417 -16.1711 21.7645
CA -1.31013 -16.2341 50.9623
CA 30.8714 -0.645979 62.3349
CA 13.9983 5.66926 67.8433
CA 17.0383 -19.677 35.8062
CA 28.5187 -4.28517 65.0511
CA 9.60794 -12.8798 41.3876
CA 2.73571 -21.3061 52.9485
CA 3.38307 13.0036 62.2433
CA 34.0768 1.87095 57.3063
CA 36.526 -5.89639 39.0934
CA 43.4016 -2.46391 40.6187
CA 43.3115 -6.86042 44.9214
CA 10.0216 -9.76001 35.9134
CA 9.49003 -0.994613 42.4475
CA 30.3214 -13.8986 32.3061
CA 27.6511 -19.9171 31.0204
CA 20.9395 -16.0785 24.8126
CA 18.0354 -7.15621 83.1341
CA 16.5086 -24.9442 40.2824
CA 20.4774 4.81271 23.3472
CA 22.4014 -15.8751 49.1888
CA 3.52432 -7.65851 83.5047
CA -0.388404 13.9772 65.636
CA -3.47248 -10.2814 46.4885
CA 27.3454 1.68928 59.3499
CA 15.477 -11.4072 42.4995
CA 5.21249 -1.53031 38.3284
CA 10.3553 5.35405 61.4996
CA 20.8044 -22.7951 78.1213
CA 5.60507 6.84492 66.8042
CA 43.0114 -5.21303 38.8783
CA 12.6025 -10.9995 41.8144
CA 7.50288 -8.2232 33.8461
CA 30.8553 -19.0487 31.646
CA 24.9236 -10.8646 28.8631
CA 19.9018 -19.207 70.0027
CA 26.3002 -21.7258 53.3485
CA 25.9433 -6.36104 25.6978
CA 44.0895 -4.17307 24.7729
CA 14.4069 -15.4288 26.3376
CA 39.271 -0.681547 64.5948
CA 31.4936 -21.5359 80.8302
CA 46.6249 -1.12705 32.0721
CA 19.7043 -25.7042 60.3161
CA 30.5189 14.6066 61.0279
CA -1.78341 -4.62821 53.6114
CA 31.1757 8.57568 60.4258
CA 7.62374 -11.9972 85.3438
CA 24.4818 4.97401 39.7879
CA 30.3451 -42.2289 44.7735
CA 23.8801 -6.6336 33.4295
CA 21.6018 -18.0754 67.9925
CA -3.12374 -9.93 44.5268
CA 14.1095 -12.2964 48.7728
CA 27.7695 8.93465 47.7974
CA 4.23258 -12.2392 24.6232
CA -0.947222 -27.6016 78.8268
CA 29.1967 -13.1294 71.0661
CA 24.6069 -19.5611 26.9782
CA 32.0979 -45.3692 42.3976
CA 24.7267 20.3967 40.8593
CA 27.5712 -20.0129 79.9181
CA 39.9385 -5.87457 39.0797
CA 7.18353 -10.2077 64.9176
CA 31.422 -44.069 44.1553
CA 4.49147 -13.9932 80.8432
CA 24.3917 25.3241 49.7677
CA 14.7359 -12.249 38.1895
CA 29.4923 8.96249 61.5108
CA 5.01586 -1.61935 27.9903
CA 22.9406 1.48808 59.3064
CA 31.9082 21.9031 44.3764
CA -1.44749 -19.8577 47.5336
CA 14.3853 -8.97839 56.9019
CA 26.3278 2.05943 66.837
CA -2.26709 -16.2703 37.0194
CA 21.8353 -32.8593 59.9601
CA 14.6107 -21.1471 13.687
CA 33.5157 -21.0301 81.2599
CA 27.8925 -6.09835 24.4854
CA -1.24187 -9.65586 52.0483
CA 19.719 -30.6633 60.1871
CA 3.04984 16.401 67.198
CA 23.4311 3.59471 61.038
CA 17.7943 -25.2875 65.3714
CA 9.54367 -19.3636 76.541
CA 38.1918 -0.312302 62.7137
CA 14.5217 -8.5136 62.5057
CA 37.334 -8.10089 41.4706
CA 44.3867 -0.232425 33.2637
CA 2.67701 -24.806 64.6359
CA 25.584 -38.9059 43.2816
CA 29.9144 -15.3828 74.0791
CA 18.8333 -34.025 48.4248
CA 8.04154 -8.22189 46.7195
CA 48.1013 -0.147843 33.9126
CA 22.1767 -31.6087 41.0769
CA 1.36525 -10.5257 81.8369
CA 25.1056 1.4268 59.2975
CA 26.9518 -8.51438 51.8912
CA 26.7038 -1.32318 21.7705
CA 18.4152 5.97757 41.1075
CA 31.9447 -43.0868 46.3282
CA 16.8866 -32.2235 40.2319
CA 44.3707 -7.15671 38.9289
CA 28.9395 -4.07168 67.0901
CA 13.7273 -11.108 27.4017
CA 23.9238 -0.768746 21.7644
CA 10.4612 -11.6217 71.3821
CA 13.9353 2.70514 59.6723
CA 20.1528 -5.04065 51.0425
CA -1.96514 -12.0182 45.7859
CA 5.81398 -14.9636 59.8041
CA 23.504 14.0831 43.8094
CA 13.0378 -14.2866 46.7502
CA 1.92214 13.7051 63.2705
CA 18.621 -9.36208 58.1745
CA 13.8386 -21.7006 49.8313
CA 22.9822 -24.76 40.9885
CA 14.9788 -19.6817 50.8803
CA -3.60098 0.103232 80.5066
CA 2.94771 -27.5051 82.038
CA 27.6294 -18.4125 37.8093
CA 5.57104 -24.1843 80.8207
CA 24.1976 -21.7912 43.5392
CA 12.3645 -21.4865 43.7927
CA 28.853 -15.1016 76.2224
CA 27.5655 -12.3372 51.5595
CA 37.7874 -2.98699 35.4978
CA -4.06524 12.859 66.5086
CA 15.4554 18.0053 35.8108
CA 4.99714 -20.7977 50.7482
CA 16.9923 -20.1206 49.7726
CA 24.4948 22.4043 38.3541
CA 12.292 -13.4039 33.9691
CA 4.40465 -1.73996 34.4453
CA 26.9983 -2.90212 26.2838
CA 22.2545 -16.8177 47.3685
CA 25.9385 -32.2428 50.8872
CA 41.7836 -1.62415 73.7759
CA 18.7292 -3.02513 24.4288
CA 18.2217 -3.5411 64.0836
CA 13.145 -8.05583 58.0652
CA 16.0936 -2.55938 47.7744
CA 36.2761 -44.6503 50.9983
CA 15.2495 -10.461 59.3919
CA 29.7073 -16.7642 78.7041
CA 48.5686 -11.536 41.4398
CA 24.993 7.1184 45.3123
CA 12.8692 -22.5216 52.3248
CA 32.7773 1.04186 65.3073
CA -5.47127 -14.0777 46.2836
CA 25.3102 13.4504 42.278
CA 17.3468 -5.64774 65.2448
CA 15.2199 -13.3141 72.9523
CA 17.6917 8.66495 72.9893
CA 11.0554 3.67768 66.3031
CA 47.1389 7.99501 41.3418
CA 12.2878 -0.453319 56.9851
CA 24.8367 13.7643 55.9772
CA 47.976 1.13299 32.1215
CA 12.2472 -7.83647 64.3298
CA 29.1493 5.00714 55.9445
CA 14.7533 -7.24504 68.1336
CA 26.3813 -14.584 53.9067
CA 28.2543 -37.309 54.6024
CA 26.384 -19.0837 80.9253
CA 6.04186 -15.0611 88.9242
CA 28.3359 7.25641 55.7663
CA 14.3961 -19.5462 15.5785
CA 12.9159 -23.1771 44.6455
CA 15.9523 8.34315 61.191
CA 6.88573 -9.4414 73.8195
CA 37.5379 -1.78422 72.3592
CA 10.582 -1.03092 60.477
CA 7.31596 -8.36044 37.0978
CA 12.9928 -13.7906 16.6866
CA 21.012 16.3324 30.8775
CA 31.9735 -46.719 48.7489
CA 3.15603 -25.6387 59.7484
CA 6.06956 -15.0247 64.93
CA 22.9484 -20.9076 62.3678
CA 11.4157 -7.48797 35.2749
CA 26.1174 -1.44024 58.8398
CA 5.93258 -26.12 61.2397
CA -1.96717 -14.1323 47.1238
CA 31.5327 8.56409 57.9794
CA 34.0655 -4.76508 29.4848
CA -2.63164 -3.37763 82.3949
CA 17.6987 5.47745 39.4873
CA 17.9144 -9.60224 67.1204
CA 1.54337 -20.5898 50.1302
CA 30.4563 -23.5735 79.241
CA 24.9664 -3.95457 51.4274
CA 13.9613 -2.41449 45.9175
CA 22.0191 7.93162 40.28
CA 28.3261 -18.8909 72.1345
CA -6.41641 -9.60308 47.6533
CA 5.33884 -22.8172 63.8495
CA 17.548 -9.42895 63.236
CA 27.7941 -16.1532 29.701
CA 11.71 -11.1755 29.1605
CA 34.3401 -0.26861 35.9608
CA 18.9233 -30.4994 44.1832
CA 8.08624 -9.33485 75.4842
CA 24.6237 7.36376 38.5237
CA 11.8213 -11.4168 43.57
CA 27.4254 2.59856 56.007
CA 33.921 -5.38804 35.9536
CA 35.9816 1.35453 56.4218
CA 12.5428 -23.4899 75.783
CA 34.7333 -17.6732 28.6247
CA 47.2684 -11.1639 42.894
CA 44.8601 -7.38487 43.8935
CA 8.33407 -8.84059 38.7251
CA 16.8767 -0.255737 68.3695
CA 13.8807 -14.0073 68.6187
CA 14.778 -15.7625 34.9446
CA 33.3012 -47.572 54.4658
CA 15.0389 -1.49825 63.8175
CA 13.9605 -21.2239 63.5082
CA 30.7222 19.2777 49.4656
CA 29.7241 -11.7515 31.9378
CA 34.5283 -37.4462 48.1501
CA 8.08321 -23.8921 63.0148
CA 36.9058 -6.35277 36.1455
CA 26.3566 -0.783361 52.8705
CA 27.2371 -33.0476 46.9892
CA 8.82033 -6.5038 34.8091
CA 18.7992 -12.6826 72.7623
CA 22.1318 -17.2374 45.1855
CA 25.6822 4.88902 37.8317
CA 29.379 -22.009 70.2668
CA 28.1584 -14.6085 35.5423
CA 28.2075 6.63643 43.8126
CA 27.3567 15.0055 40.5976
CA 11.6609 -10.0299 31.7611
CA 16.2151 -20.6428 54.9017
CA 30.1373 19.1103 44.3763
CA 34.2934 -21.09 87.3047
CA 1.37009 -12.1648 48.306
CA 22.7436 18.0003 35.3431
CA 22.4737 -23.2138 60.5935
CA 24.8796 -26.4126 60.8669
CA 18.3648 -14.6732 22.9822
CA 13.7705 -3.63896 49.4946
CA 29.9322 24.836 39.9058
CA 25.2473 10.7224 38.2221
CA -0.817222 -5.95105 55.024
CA 28.0327 17.579 42.4797
CA 9.76709 -4.12479 34.0732
CA 1.20226 -7.97079 53.0894
CA 27.1635 -5.92247 67.0026
CA 11.5513 -28.292 41.3687
CA 9.64754 4.34592 68.7826
CA 32.292 -48.6455 45.0789
CA 13.8803 -26.9923 56.7713
CA 18.153 -26.1002 61.5429
CA 11.0565 -2.07769 47.2871
CA 13.7378 -18.0761 64.5018
CA 16.9408 -14.0367 71.2231
CA 14.0578 7.87983 50.0744
CA 32.0381 0.963978 36.584
CA 16.9908 -7.80981 60.4022
CA 5.10403 -16.5386 58.7463
