489

CA 11.9409 -4.93036 32.0027
CA 13.9095 -22.159 58.2019
CA 27.1392 -48.2493 43.2358
CA 23.5751 -8.42719 57.8802
CA 47.9969 -12.7156 46.0993
CA 17.9725 0.419647 59.9187
CA 25.8417 -22.7559 58.0034
CA 15.1377 15.4944 47.0408
CA 26.3135 -22.7603 79.1323
CA 49.4998 -0.479315 32.4949
CA 43.3401 -1.62538 26.8666
CA 20.7386 -4.18266 67.8649
CA 13.3061 -17.5405 17.9821
CA 31.1185 -42.5912 55.3512
CA 23.4778 14.6359 36.5534
CA 24.0718 -27.6288 66.9181
CA 15.6522 -21.6547 48.653
CA 11.8128 -28.8431 57.4517
CA 21.1207 -27.2767 37.0728
CA 10.4503 -25.1689 55.5963
CA -2.25811 -9.82497 40.4564
CA 11.634 -6.38659 82.3191
CA 32.432 -43.1777 38.7402
CA 28.3765 -10.2978 70.0021
CA 27.5811 -13.6802 77.7137
CA 21.4658 -1.33308 56.0717
CA 25.9314 -4.09163 26.4724
CA 24.8101 -21.4544 55.3233
CA 15.3046 -21.4512 53.3319
CA 30.6582 -1.98816 61.1267
CA 29.6208 -26.6168 58.991
CA 13.902 -3.593 32.2748
CA 25.9259 -16.6662 67.4345
CA 8.57525 7.93697 59.0379
CA 27.9579 -1.27525 19.7896
CA 3.56128 -22.7339 86.0732
CA 48.5477 -5.87304 41.6378
CA 8.47115 -11.0252 23.8011
CA 31.5387 22.519 41.3403
CA 35.1159 -23.2503 84.6603
CA 16.8992 -10.7783 63.5034
CA 21.02 -5.48302 63.3508
CA 16.4336 10.7925 46.7642
CA 13.02 -26.0836 79.0067
CA 23.0177 -20.0687 58.1217
CA 12.4144 -10.4005 76.0372
CA 28.3671 1.93107 54.5524
CA 10.1308 -25.0106 43.417
CA 29.4597 -12.191 52.453
CA 16.0012 -20.9467 65.1781
CA 31.2864 -37.9404 53.1407
CA 12.2488 -24.8201 47.9526
CA 28.2889 -17.3722 31.6822
CA 27.9657 -36.5673 44.4228
CA 29.1395 2.98622 56.8995
CA 1.95723 -21.8533 59.0619
CA 28.8796 -8.76551 60.3872
CA 13.51 -8.2569 82.3682
CA 16.6264 -24.3201 14.844
CA 4.64625 -31.5862 54.8529
CA 16.7227 16.4355 45.6969
CA 18.564 -19.1367 37.5021
CA 19.8302 4.57096 39.4802
CA 9.80245 -13.1642 66.3931
CA 27.2216 -17.3297 70.285
CA 26.5078 20.3975 44.1401
CA 10.3883 -24.2675 60.7242
CA 9.15288 -9.50731 41.1693
CA 22.8728 -13.3604 51.5139
CA 36.8851 -0.171586 29.3693
CA 15.2778 1.34719 66.6957
CA 29.0132 12.2336 55.8196
CA 21.5184 1.3042 53.7638
CA 18.7927 -2.28295 54.882
CA -3.03269 -9.77449 48.9937
CA 0.198138 -28.893 61.2054
CA 20.3327 -20.2851 77.9098
CA 12.8758 18.1687 45.1503
CA -3.87592 -28.9849 63.3969
CA 7.06322 -27.7126 41.9401
CA 15.5047 -20.1097 49.8466
CA 16.7951 14.9425 32.9937
CA 11.929 5.24291 60.8008
CA 7.93015 -20.2621 70.9169
CA 11.9548 -4.26496 36.8634
CA 26.5574 24.775 45.5388
CA 30.3723 -0.388066 58.1213
CA 21.0234 -19.4926 62.2517
CA 28.876 31.1681 44.711
CA 24.7744 -15.4515 79.8868
CA 24.0035 -14.989 75.7117
CA 2.96592 10.6653 56.6417
CA 13.4387 -5.50729 65.7679
CA 36.5012 -4.04548 28.3426
CA 12.8345 -11.0876 69.4413
CA 18.2031 15.9348 33.5341
CA 40.5235 3.58431 74.5227
CA 9.32864 -22.3152 80.3317
CA 9.3059 -20.1912 72.7505
CA 22.4283 15.4586 38.7913
CA 34.802 -35.0501 47.3573
CA 33.8091 -24.4356 87.5356
CA 24.6423 -24.698 31.9861
CA 8.80828 -19.8933 74.7858
CA 24.6878 -9.9755 72.501
CA 17.75 -26.5583 17.0055
CA 28.2884 22.3111 39.2608
CA 18.2236 7.05043 46.5047
CA 10.8164 7.50376 58.7457
CA 19.7007 -25.1903 35.3714
CA 21.2874 -7.55101 83.217
CA 10.534 -9.35121 25.3448
CA 12.1525 -20.8225 11.9343
CA 28.3638 -22.0585 58.1335
CA 23.2821 1.87782 57.9423
CA 20.0073 -21.4665 60.213
CA 25.9348 4.68665 54.6203
CA 22.3689 -18.5148 57.2645
CA 8.64431 -9.48313 34.9247
CA 14.2475 -2.79518 69.7596
CA 10.1274 -4.22877 47.1204
CA 21.3521 -32.6762 48.3446
CA 17.8163 -22.1386 79.6721
CA 36.4745 9.1151 49.6391
CA 12.129 -9.71731 15.6943
CA 10.4419 -10.8811 48.489
CA 7.69695 -12.9893 89.4085
CA 13.2967 -7.74363 28.3294
CA 12.9414 -12.0496 76.7051
CA 20.1499 16.5448 38.5194
CA 23.5235 -20.7046 50.7385
CA 14.5727 -27.3874 73.8353
CA 46.2585 -11.5485 47.0495
CA 43.7615 -6.14055 36.4823
CA 34.2461 -16.7922 56.4234
CA 29.5075 -16.899 28.1529
CA 1.13929 -28.999 62.959
CA 31.072 -12.9238 78.7501
CA 17.1002 -16.4678 38.7983
CA 26.7867 6.09341 42.6037
CA 4.56868 -16.4291 51.5756
CA 34.8266 12.7275 52.5958
CA 32.6333 -14.8752 58.9918
CA 20.8106 -14.0554 45.9726
CA 32.1814 7.70006 63.3332
CA 30.5658 -4.27288 51.7247
CA 29.0175 23.4199 42.658
CA 16.5164 -25.8429 45.5679
CA 13.5318 -20.2249 50.1533
CA 16.5881 -11.1824 26.8067
CA 19.5577 -21.4418 39.6452
CA 15.7395 -25.5793 50.2222
CA 10.4076 -9.35167 33.7038
CA 23.6333 -19.9756 47.4047
CA 24.4688 11.8723 48.9701
CA 27.4635 11.275 54.8964
CA 19.9008 10.4173 42.7396
CA -2.2243 -30.6282 62.7378
CA -1.03557 -17.4494 52.5967
CA 3.85216 -26.8466 85.33
CA -0.730701 -27.4555 64.9874
CA 12.242 -18.6361 16.1913
CA 31.5793 -1.5646 65.5334
CA 32.5271 5.40302 62.9281
CA 5.6268 -10.9582 50.55
CA 23.6834 -17.0094 78.947
CA 17.758 -21.8302 36.02
CA 18.222 2.66448 47.0452
CA 19.6994 -17.3558 39.2537
CA 34.0251 14.1213 55.2937
CA 25.2692 -25.2739 63.8278
CA 25.7313 -14.0579 75.1872
CA 28.337 -22.3865 49.1768
CA 6.69799 -9.26266 83.026
CA 27.6338 -50.1298 43.6773
CA 38.5806 2.83692 66.3421
CA 20.7641 -31.6594 54.7698
CA 20.7319 -27.1942 43.0559
CA 16.57 -19.107 65.8463
CA 22.8495 0.794578 60.394
CA 21.9422 12.1919 32.5889
CA 13.1389 -22.0733 47.7755
CA 6.12604 -13.6451 40.7411
CA 22.8151 -3.6734 56.0291
CA 13.5946 -11.0898 40.0244
CA 29.7665 -23.5487 32.3361
CA 24.0528 -18.4943 81.4803
CA 20.2828 -18.8746 58.0218
CA 28.6213 -38.7964 40.5627
CA 18.973 18.724 38.5231
CA 19.8371 -10.6112 75.1239
CA 16.1167 -27.9316 50.5925
CA -1.07378 -27.2013 61.8303
CA 21.1285 6.15011 37.9541
CA 27.7459 -21.5049 84.0149
CA 47.7495 2.25262 28.9897
CA 42.3628 -5.17609 43.3267
CA -4.77899 -14.2315 46.3919
CA 34.5783 -40.9032 44.8099
CA 5.52555 10.9559 60.1901
CA 28.1389 0.732503 39.2101
CA 32.9484 4.27288 47.8788
CA 25.0675 -3.98485 21.6315
CA 20.3892 -33.7047 56.646
CA 17.4422 -20.2803 47.5353
CA 39.4388 2.8021 73.077
CA 15.2694 -22.0493 15.6615
CA 26.3293 2.25899 63.6284
CA 35.3329 -1.02239 68.1113
CA 33.1651 -6.9126 25.558
CA 15.8877 -18.2084 47.7989
CA 28.3445 29.641 45.9125
CA 43.2859 -3.17551 43.1198
CA 18.7718 -0.713926 51.4084
CA 20.1591 -16.6757 64.3137
CA 33.0308 -23.1598 85.8183
CA 7.52519 -3.63017 34.3745
CA 28.1162 -14.9005 34.6031
CA 29.2283 -42.695 54.6703
CA -5.93143 -15.5342 36.9125
CA 6.43879 8.98861 58.9659
CA 9.36124 -22.2579 60.2376
CA 26.496 -30.2472 36.9827
CA 14.4417 -16.1711 21.7645
CA 11.4287 -21.0237 63.2034
CA 14.2571 -18.4158 56.398
CA 19.813 -11.7576 24.6716
CA 43.051 -7.52945 35.3317
CA 21.9082 -20.7081 34.8174
CA 9.60794 -12.8798 41.3876
CA 34.9454 -26.264 85.8648
CA 3.38307 13.0036 62.2433
CA 33.5818 -13.081 77.7318
CA 36.526 -5.89639 39.0934
CA 12.1927 -23.3775 49.4261
CA 43.3115 -6.86042 44.9214
CA 21.0645 18.3133 29.7808
CA -3.55386 -14.0693 36.9458
CA 30.3214 -13.8986 32.3061
CA 17.3081 -8.37032 80.0409
CA 20.9395 -16.0785 24.8126
CA 39.5978 -0.752195 39.5236
CA 16.5086 -24.9442 40.2824
CA 23.6773 -12.1924 73.0736
CA 24.9268 -3.96069 29.7027
CA 7.28603 -24.8812 46.6223
CA 15.036 -11.8253 16.0927
CA 33.8582 -39.9213 43.0237
CA 14.0436 -7.43835 31.4196
CA 26.3561 4.44667 51.7338
CA 23.2467 9.33798 39.4385
CA 8.60273 -10.7359 44.4369
CA 20.8044 -22.7951 78.1213
CA 26.6929 -16.082 48.8113
CA 27.8555 -27.4786 35.8735
CA 18.785 -13.345 13.5268
CA 24.0087 19.1686 30.9007
CA 32.1266 -10.6642 51.5477
CA 9.7242 -24.4971 71.8213
CA 25.2476 -5.26214 66.9812
CA 26.3002 -21.7258 53.3485
CA 29.5232 -44.2431 55.655
CA 17.3647 -0.459124 48.8575
CA 16.0321 -11.6406 70.8993
CA 19.1618 -13.038 72.7204
CA 3.36647 -17.3287 48.3295
CA 11.0433 -20.4388 51.3843
CA 11.1016 -13.0341 45.8366
CA 9.0176 -2.26682 32.8469
CA 31.3902 14.6828 43.7205
CA 22.411 -32.759 52.7761
CA 4.01805 -19.9135 80.4594
CA 35.7346 0.59787 38.8535
CA 30.3451 -42.2289 44.7735
CA 14.2273 1.29657 61.6225
CA 2.70505 -12.6038 51.3012
CA -3.12374 -9.93 44.5268
CA 14.1095 -12.2964 48.7728
CA 37.344 -4.13652 41.8997
CA 4.45061 -10.7454 83.6566
CA 21.6619 -18.8009 60.079
CA 34.9693 0.65477 37.1728
CA 24.6069 -19.5611 26.9782
CA 32.0979 -45.3692 42.3976
CA 21.1834 0.238691 51.6306
CA 21.7628 23.115 31.8412
CA 16.2979 -18.7158 70.4052
CA 7.05263 -27.8803 81.1937
CA 17.2295 -5.59153 68.8208
CA -8.4298 -15.8085 37.314
CA 35.2894 -11.9733 53.3819
CA 22.3036 -6.88205 57.0917
CA 35.2711 -14.6612 53.7379
CA 11.1363 -14.3267 49.9187
CA 33.9664 -44.9851 51.6487
CA 12.9363 -24.3925 39.8861
CA -1.44749 -19.8577 47.5336
CA 29.6177 -5.56965 61.7392
CA 15.2745 -24.5182 52.2182
CA 27.6086 14.951 42.5631
CA 17.2986 -22.8582 38.6706
CA 7.2557 -6.92494 82.8501
CA 10.2272 -8.89054 73.1443
CA 27.8925 -6.09835 24.4854
CA 28.5734 0.853419 62.9796
CA -2.10652 -30.8536 77.9968
CA 9.53647 -4.03331 30.9715
CA 34.5494 6.64996 48.4816
CA 23.3374 -1.96808 52.4647
CA 37.9002 -4.6508 30.7808
CA 16.3894 -8.40994 49.1266
CA 14.5217 -8.5136 62.5057
CA 32.4595 -18.3291 56.0956
CA 11.0417 -24.2492 74.3024
CA 12.2083 -26.1005 60.526
CA 21.5478 25.2111 25.7245
CA 6.28812 -18.799 82.6674
CA 14.3508 -23.336 46.4206
CA 19.2817 -24.0626 62.9923
CA 11.8352 -20.0978 66.946
CA 34.3785 9.13032 47.278
CA 24.253 -25.9811 58.0296
CA 4.5946 -18.936 51.5017
CA 9.88189 -8.28304 76.7159
CA 14.1908 -22.7534 50.4432
CA 18.4152 5.97757 41.1075
CA 23.9999 9.03557 45.2996
CA 26.3573 -15.3139 28.3803
CA 7.20542 -15.3604 89.4829
CA 28.9395 -4.07168 67.0901
CA 13.7273 -11.108 27.4017
CA 32.3056 -21.4813 86.2571
CA 43.6254 0.696969 32.5947
CA 40.9423 0.140734 29.9451
CA 37.5687 -3.46373 39.1371
CA 10.7501 -10.2588 92.7265
CA 25.4352 -4.31227 59.1304
CA 23.504 14.0831 43.8094
CA 28.6081 -8.1036 54.1061
CA 21.7475 -2.28987 57.8025
CA 31.0279 28.5553 50.4156
CA 5.038 -27.3502 80.3917
CA 32.2205 3.89557 64.4754
CA 33.5148 -21.9605 89.3187
CA 11.5557 -17.0014 69.7663
CA 2.94771 -27.5051 82.038
CA 17.2963 11.1331 33.0626
CA 5.57104 -24.1843 80.8207
CA 32.2212 -43.3348 51.956
CA 0.30201 -11.2788 41.8788
CA 16.8927 -5.90172 71.044
CA 16.3073 -15.4166 59.8389
CA 22.3478 9.03234 36.727
CA 43.8895 -2.63375 33.9918
CA 47.0001 -6.11374 39.1673
CA 4.99714 -20.7977 50.7482
CA 25.6331 15.7678 41.0725
CA 8.29438 -28.8543 40.4087
CA 36.4921 12.3617 48.4149
CA 24.847 -23.058 77.5811
CA 23.2716 -26.4103 30.5962
CA 22.2545 -16.8177 47.3685
CA 25.9385 -32.2428 50.8872
CA 17.8554 -6.06352 79.5904
CA 20.3085 -20.0988 49.7879
CA 6.04769 -11.6517 85.3334
CA 20.7489 -18.3075 37.6132
CA 11.188 -18.6578 22.0184
CA 30.518 -19.0905 34.8127
CA 32.4459 -0.900402 39.7591
CA 28.9664 -45.2896 44.821
CA 18.7795 -14.4241 64.1626
CA 12.6248 -3.99964 34.8231
CA 12.8692 -22.5216 52.3248
CA 35.2466 -9.92049 46.232
CA 23.9819 17.4205 29.6559
CA 46.5005 -8.48799 36.0078
CA 17.3468 -5.64774 65.2448
CA 5.32011 -6.15057 83.5249
CA 16.6195 -25.3375 53.1525
CA 18.2017 -23.403 48.4993
CA 4.5565 -27.2369 83.2733
CA 23.009 2.26428 24.0532
CA 24.8227 -11.5556 66.4984
CA 30.5501 -10.3524 53.1253
CA 5.58041 6.43396 69.9447
CA 28.8437 -16.1336 52.3055
CA 11.3895 6.52319 56.7314
CA 29.308 29.2654 52.0308
CA 4.43722 -12.2299 88.1529
CA 42.2923 -3.12784 39.3141
CA 50.4446 -9.08603 43.1643
CA 42.3662 2.40008 71.1266
CA 21.4788 21.836 27.122
CA 13.1377 -18.3919 54.1429
CA 12.2255 -23.5332 72.144
CA 17.2994 -26.3499 54.7792
CA 25.4298 -3.67783 65.4806
CA 20.9831 -26.9145 64.3651
CA 13.281 -10.3686 66.4752
CA 12.9928 -13.7906 16.6866
CA 20.0698 -24.3582 77.2371
CA 11.6642 -7.90399 83.6903
CA 7.32697 6.37078 56.4319
CA 31.0976 -43.712 42.0238
CA 22.9484 -20.9076 62.3678
CA 10.5393 -26.9373 58.5081
CA 28.6232 13.2303 57.8799
CA 17.6921 -14.4999 45.5187
CA -1.96717 -14.1323 47.1238
CA 31.5327 8.56409 57.9794
CA 18.8061 -16.1532 38.2046
CA 22.4124 -23.5601 29.1701
CA 19.7212 -7.41475 81.3611
CA 21.1158 -21.6081 61.6806
CA 24.1499 5.24124 46.2345
CA 2.1996 -28.2104 80.2436
CA 36.1715 -15.868 55.2078
CA 23.0284 -24.3784 62.3197
CA 41.9279 -1.09826 41.1813
CA 43.9957 -7.05743 40.6286
CA 24.5046 -20.4558 79.515
CA 36.1717 1.34117 58.9242
CA 26.5008 29.7207 41.0358
CA 28.1155 -37.7447 42.7746
CA 13.0119 3.58244 66.0504
CA 22.0113 -12.6166 49.1776
CA 16.5675 -22.7207 42.1603
CA 0.547316 -21.2757 53.7702
CA 36.8404 0.531398 72.6357
CA 14.8155 10.6172 45.923
CA 45.9532 -1.3854 34.1775
CA 16.9812 -5.70559 81.7525
CA 19.0143 6.00162 62.8386
CA 12.5428 -23.4899 75.783
CA 10.2788 -24.6182 48.6028
CA 8.96462 -5.94131 83.3139
CA 19.0976 -6.90085 78.043
CA 17.6951 -17.35 59.4434
CA 30.5579 10.0333 63.7896
CA 7.80208 3.53528 54.5968
CA 25.357 -35.1311 48.2769
CA 18.766 -16.1866 32.7096
CA 20.8989 -4.78605 66.0191
CA 13.9605 -21.2239 63.5082
CA 30.7222 19.2777 49.4656
CA 17.2776 -16.0509 25.7892
CA 34.5283 -37.4462 48.1501
CA 29.156 -29.0337 54.1936
CA 29.5526 25.7858 46.1026
CA 28.8851 -18.5108 29.4426
CA 27.2371 -33.0476 46.9892
CA 8.82033 -6.5038 34.8091
CA 28.3869 20.7057 40.9933
CA -3.79734 -28.5949 79.4625
CA 25.6822 4.88902 37.8317
CA 29.379 -22.009 70.2668
CA 33.6343 11.0944 49.9599
CA 28.3917 6.0544 65.0154
CA 27.3567 15.0055 40.5976
CA 1.20503 -22.909 60.5426
CA 18.9779 -0.889195 66.3218
CA 30.1373 19.1103 44.3763
CA 34.2934 -21.09 87.3047
CA 34.8952 19.2698 46.9089
CA 22.7436 18.0003 35.3431
CA 33.6798 9.08407 51.2817
CA 30.6358 -43.0834 46.8416
CA 18.3648 -14.6732 22.9822
CA 2.06513 -20.0245 58.8738
CA 25.584 -10.1989 59.5599
CA 20.3791 7.15639 35.4178
CA 22.211 -21.348 73.9378
CA 3.40193 -15.0008 40.7954
CA 20.2599 3.87017 59.5933
CA 1.20226 -7.97079 53.0894
CA 12.957 -19.0667 22.2692
CA 16.3759 0.733877 50.8773
CA 30.3478 8.72251 67.0889
CA 28.7171 -24.4412 75.8458
CA 13.8803 -26.9923 56.7713
CA 27.057 -3.78281 20.8382
CA 30.1344 26.517 55.6892
CA 28.0773 -4.90913 39.838
CA 8.48136 -28.2494 60.5872
CA 14.8107 -26.9617 51.4545
CA 32.0381 0.963978 36.584
CA 11.0152 3.84318 58.0924
CA 23.2203 -9.35226 60.4937
