489

CA 21.4767 -9.91471 27.2697
CA 42.4189 0.00361865 32.4707
CA 27.1392 -48.2493 43.2358
CA 36.2678 5.57782 62.4517
CA 18.3014 7.78034 64.1253
CA 23.0923 -20.4842 60.792
CA 30.4175 -16.7305 50.1792
CA 1.79867 -6.61338 54.5819
CA 19.1012 -2.71223 52.1116
CA 49.4998 -0.479315 32.4949
CA 0.0555409 -9.40976 38.8918
CA 20.7386 -4.18266 67.8649
CA 0.771314 -30.1778 80.7341
CA 6.34695 -13.6498 74.8642
CA 23.4778 14.6359 36.5534
CA 24.0718 -27.6288 66.9181
CA -2.25484 -23.9637 66.9866
CA 26.2839 -30.3566 32.2561
CA 40.7898 0.701536 43.2691
CA 10.4503 -25.1689 55.5963
CA -2.25811 -9.82497 40.4564
CA 11.634 -6.38659 82.3191
CA 22.552 -19.274 72.3182
CA 28.3765 -10.2978 70.0021
CA 19.0683 -20.6777 74.2692
CA 23.6204 -6.769 25.0909
CA 22.7118 -2.84765 59.3768
CA 36.7012 3.20148 72.5998
CA 17.1876 17.8234 38.1429
CA 30.6582 -1.98816 61.1267
CA 27.4155 2.90967 68.8982
CA 24.8527 -24.1745 60.5925
CA 25.9259 -16.6662 67.4345
CA 5.14633 -31.2459 61.0279
CA 15.6624 -8.01947 28.6753
CA 24.8793 -24.2769 54.8629
CA 11.6091 -20.0568 47.8637
CA 30.0648 0.974984 36.2844
CA 15.0893 -5.21537 84.808
CA 30.3495 -20.8154 83.1414
CA 28.6559 -17.0305 82.9537
CA 21.02 -5.48302 63.3508
CA 18.9726 -20.4594 63.5658
CA 22.1465 17.5724 27.1915
CA 23.0177 -20.0687 58.1217
CA 12.4144 -10.4005 76.0372
CA 6.99754 -10.1848 37.1164
CA 22.4098 1.61096 39.2032
CA 22.048 -24.4976 44.6755
CA 16.0012 -20.9467 65.1781
CA 48.6447 -10.4632 38.9377
CA 12.2488 -24.8201 47.9526
CA 27.1903 -17.8586 32.3124
CA 31.8696 -18.6443 36.1237
CA 29.1395 2.98622 56.8995
CA 1.95723 -21.8533 59.0619
CA 28.8796 -8.76551 60.3872
CA 50.6803 -6.8543 42.6791
CA 16.6264 -24.3201 14.844
CA 47.1803 -4.47029 33.8849
CA 16.7227 16.4355 45.6969
CA 18.564 -19.1367 37.5021
CA 26.4354 -2.37267 27.2571
CA 16.2662 -18.7186 28.9254
CA 23.6938 -16.0469 34.4336
CA 38.9351 -0.701874 44.5168
CA 10.3883 -24.2675 60.7242
CA 18.3245 -7.50996 62.035
CA 6.44938 -29.02 80.5889
CA 23.9551 -23.2762 64.497
CA 15.2778 1.34719 66.6957
CA 11.4701 -11.8694 49.9493
CA -2.40724 -7.72055 42.5679
CA 18.7927 -2.28295 54.882
CA -3.03269 -9.77449 48.9937
CA 0.198138 -28.893 61.2054
CA 12.2375 -12.2663 14.6189
CA 12.8758 18.1687 45.1503
CA -3.87592 -28.9849 63.3969
CA 25.9447 -4.39337 62.9533
CA 41.2909 6.60624 72.5628
CA 16.7951 14.9425 32.9937
CA -4.43607 -29.9673 59.4075
CA 7.93015 -20.2621 70.9169
CA 28.6769 -26.4633 37.6575
CA 2.19731 -27.0911 68.6952
CA 33.4344 -9.78169 53.141
CA 21.0234 -19.4926 62.2517
CA 15.5403 -16.4051 51.9136
CA 12.404 -11.6663 62.4413
CA 24.0035 -14.989 75.7117
CA 2.96592 10.6653 56.6417
CA 35.0487 4.81502 49.6472
CA 36.5012 -4.04548 28.3426
CA 12.8345 -11.0876 69.4413
CA 24.4512 20.6653 29.9716
CA 5.12697 -27.2091 61.1371
CA 15.5159 -23.0314 43.8247
CA 24.3535 -17.8076 48.3595
CA 22.4283 15.4586 38.7913
CA 30.1523 -41.1301 41.4473
CA 19.899 -33.0777 52.0702
CA 24.6423 -24.698 31.9861
CA 19.1203 -5.41416 81.4797
CA 33.5252 -1.32397 35.9743
CA 17.75 -26.5583 17.0055
CA 28.2884 22.3111 39.2608
CA 25.5294 -37.153 40.4899
CA 23.5317 1.82881 51.441
CA 16.0141 -21.188 62.853
CA 1.69492 -28.8373 77.9625
CA 20.6334 -16.8704 27.9107
CA 12.1525 -20.8225 11.9343
CA 30.3598 -41.0684 52.7636
CA 4.561 -18.9148 83.2718
CA 20.0073 -21.4665 60.213
CA 25.9348 4.68665 54.6203
CA 22.3689 -18.5148 57.2645
CA 8.64431 -9.48313 34.9247
CA 33.4987 -18.6978 80.6892
CA 18.1887 -20.8745 60.814
CA 44.9126 -3.2144 31.3952
CA 25.3696 -4.70497 27.2441
CA -2.16052 -10.4736 36.8371
CA 12.129 -9.71731 15.6943
CA 10.4419 -10.8811 48.489
CA 33.0355 3.21636 45.0548
CA 0.589484 -7.96446 42.7281
CA 12.9414 -12.0496 76.7051
CA 20.1499 16.5448 38.5194
CA 23.5235 -20.7046 50.7385
CA 34.5654 2.7968 60.9264
CA 7.89811 -23.4927 52.4823
CA 25.6747 -28.3798 57.9082
CA 34.2461 -16.7922 56.4234
CA 1.33082 -8.05797 85.7837
CA 1.13929 -28.999 62.959
CA 25.7326 24.9594 32.7997
CA 19.1117 -18.465 51.1905
CA 32.1761 9.91324 42.5172
CA 7.37105 -23.8524 56.804
CA 0.73706 -28.618 70.5697
CA 31.0544 -21.2646 36.1956
CA 27.0505 -26.0666 36.2684
CA 18.9691 -16.734 57.4323
CA 23.3078 4.05053 64.4258
CA 29.0175 23.4199 42.658
CA 34.3776 -1.58288 38.67
CA -9.39262 -15.286 35.3937
CA 16.5881 -11.1824 26.8067
CA 23.2126 -30.7281 56.0832
CA 30.3678 25.7396 57.4525
CA 29.2984 -15.1825 30.8779
CA 23.6333 -19.9756 47.4047
CA 30.9509 2.16019 62.1539
CA 37.395 7.11508 48.1735
CA 36.7016 -20.7768 84.0877
CA -2.2243 -30.6282 62.7378
CA -1.03557 -17.4494 52.5967
CA 10.407 -10.2441 84.5304
CA -0.730701 -27.4555 64.9874
CA 12.242 -18.6361 16.1913
CA 14.3516 11.3437 38.4874
CA 32.5271 5.40302 62.9281
CA 5.6268 -10.9582 50.55
CA 7.91155 -23.3202 78.083
CA 20.9833 -1.3831 63.7344
CA 2.13917 -14.0468 49.7036
CA 17.3886 -8.36248 79.0757
CA -2.68567 -12.2865 46.7212
CA 25.2692 -25.2739 63.8278
CA 25.3345 -24.1485 71.7482
CA 30.7394 16.8133 46.0838
CA 35.6744 0.608135 53.6819
CA 25.0856 -21.7246 47.0419
CA 15.3077 -20.7569 35.4484
CA 11.5057 -1.60532 64.6896
CA 20.7319 -27.1942 43.0559
CA 16.5166 20.4599 35.3189
CA 27.416 4.11348 56.5091
CA 33.2527 29.1728 46.0194
CA 19.7504 -24.3202 25.3075
CA 35.6659 4.18569 39.0305
CA 18.6396 -6.82095 68.1529
CA 26.7165 -16.3456 47.4115
CA 29.7665 -23.5487 32.3361
CA 24.0528 -18.4943 81.4803
CA 17.8444 -9.08138 69.5964
CA 23.618 -25.7089 67.3098
CA 30.4699 -11.29 58.2112
CA 19.8371 -10.6112 75.1239
CA 13.2947 1.18967 58.7992
CA -1.07378 -27.2013 61.8303
CA 15.0447 12.0405 32.9531
CA 27.7459 -21.5049 84.0149
CA 3.70956 -10.784 86.6155
CA 44.5086 5.56245 74.0314
CA 29.1295 8.98412 62.1447
CA 25.6273 -25.7085 56.5094
CA 5.52555 10.9559 60.1901
CA 28.1389 0.732503 39.2101
CA 32.9484 4.27288 47.8788
CA 25.0675 -3.98485 21.6315
CA 24.109 -19.3004 43.1029
CA 31.6589 -4.52618 63.3166
CA -1.24196 -6.17561 50.0269
CA 15.2694 -22.0493 15.6615
CA 26.3293 2.25899 63.6284
CA 15.8171 -9.84183 76.801
CA 33.1651 -6.9126 25.558
CA 0.97939 -11.5898 52.6022
CA 28.3445 29.641 45.9125
CA 43.2859 -3.17551 43.1198
CA 17.2566 11.0692 35.9466
CA 20.1591 -16.6757 64.3137
CA 33.0308 -23.1598 85.8183
CA 19.0573 -9.20035 77.869
CA 28.1162 -14.9005 34.6031
CA 29.2283 -42.695 54.6703
CA 26.1419 -37.8384 50.8511
CA 6.43879 8.98861 58.9659
CA 35.6752 -6.54382 45.9656
CA 26.496 -30.2472 36.9827
CA 1.84702 -24.7273 67.8746
CA 11.4287 -21.0237 63.2034
CA 22.8477 4.6992 51.9063
CA 23.9141 -27.543 60.816
CA 30.8039 -23.4269 85.8625
CA 40.8334 -7.34571 31.4664
CA 29.4909 -28.7571 36.2788
CA 40.9586 -5.49197 37.2822
CA 3.38307 13.0036 62.2433
CA 30.7768 14.5253 40.6903
CA 27.599 -14.0431 32.2116
CA 12.1927 -23.3775 49.4261
CA 13.7104 -14.2691 22.156
CA 21.0645 18.3133 29.7808
CA -3.55386 -14.0693 36.9458
CA 7.57425 -16.8303 91.9607
CA 18.8236 -15.6624 25.7428
CA 22.7275 -19.4505 45.409
CA 31.7371 -3.43659 64.7722
CA 35.0155 11.3509 46.3205
CA 26.5075 -6.45141 69.1552
CA 24.9268 -3.96069 29.7027
CA 29.1757 -27.5945 32.8368
CA 22.8893 2.0497 56.7164
CA 34.4961 3.58799 51.8942
CA 14.0436 -7.43835 31.4196
CA 25.164 -4.34578 81.2463
CA 32.4857 -17.245 52.7014
CA 30.6571 -12.3129 56.4428
CA 18.6819 16.2616 34.5263
CA 26.9202 10.4647 37.219
CA 19.5279 -15.3548 75.8936
CA 24.7004 13.3641 35.2739
CA 24.0087 19.1686 30.9007
CA 12.9102 5.39653 69.0669
CA 20.6292 -23.8046 43.264
CA 5.69136 -13.9471 90.2317
CA 11.0743 -19.8285 24.6624
CA 37.6093 -2.34132 28.271
CA 22.8725 18.9169 28.7632
CA 16.0321 -11.6406 70.8993
CA 19.1618 -13.038 72.7204
CA 41.5787 11.878 74.674
CA 26.1194 -14.7369 48.7912
CA 18.3702 -24.821 31.2267
CA 43.1939 10.1357 73.5326
CA 31.3902 14.6828 43.7205
CA 51.6525 -4.82905 39.4918
CA 4.01805 -19.9135 80.4594
CA 36.9219 -5.72895 39.5158
CA 24.732 -16.9806 30.7116
CA 14.2273 1.29657 61.6225
CA 2.70505 -12.6038 51.3012
CA -3.12374 -9.93 44.5268
CA 23.7002 -19.3342 65.2135
CA 37.344 -4.13652 41.8997
CA 28.2698 -0.293351 60.4606
CA 21.6619 -18.8009 60.079
CA 15.052 -1.60068 80.8119
CA 25.3582 6.60027 36.2507
CA 32.0979 -45.3692 42.3976
CA 21.1834 0.238691 51.6306
CA 2.23701 -16.4735 41.8975
CA 15.1702 -19.9593 54.5328
CA 30.9481 -47.4172 51.8902
CA 17.2295 -5.59153 68.8208
CA -8.4298 -15.8085 37.314
CA 27.9405 -19.3421 58.0133
CA 29.3194 -24.1256 58.1042
CA 28.5585 -25.1989 55.7322
CA 11.7152 -16.2828 63.9732
CA 2.9361 -10.898 81.5395
CA 12.9363 -24.3925 39.8861
CA -1.44749 -19.8577 47.5336
CA 34.0318 -11.8596 44.4481
CA 13.6899 -25.8906 47.3893
CA 27.6086 14.951 42.5631
CA 1.99105 -12.0233 38.3961
CA 38.6218 -4.50741 40.4852
CA 5.14798 -6.43429 52.6802
CA 27.8925 -6.09835 24.4854
CA 28.5734 0.853419 62.9796
CA -1.33402 -11.731 44.4847
CA 16.6563 -28.6577 52.0316
CA 34.5494 6.64996 48.4816
CA 23.3374 -1.96808 52.4647
CA 37.9002 -4.6508 30.7808
CA 10.0072 -11.7365 73.53
CA 14.7844 -22.3473 51.3015
CA 25.8641 2.21947 55.3757
CA 18.1957 -17.986 47.1433
CA 14.7237 -20.1394 45.0451
CA 32.0212 1.55859 64.0103
CA 22.6812 -20.513 78.3456
CA 21.3198 -11.98 51.2068
CA 19.2817 -24.0626 62.9923
CA 25.9607 -13.9389 80.3943
CA 21.0379 -15.3108 43.9005
CA 24.253 -25.9811 58.0296
CA 24.6922 -10.8179 30.903
CA 9.88189 -8.28304 76.7159
CA 25.7502 -15.5149 31.2151
CA 2.23692 -31.6449 78.223
CA 23.9999 9.03557 45.2996
CA 26.3573 -15.3139 28.3803
CA 17.004 -21.6388 34.381
CA 28.9395 -4.07168 67.0901
CA 13.7273 -11.108 27.4017
CA 32.3056 -21.4813 86.2571
CA 5.9509 -21.8922 73.8898
CA 17.4044 -23.6547 52.0793
CA 8.88211 -8.44645 87.4476
CA 17.0412 14.0592 49.3851
CA 25.4352 -4.31227 59.1304
CA 23.504 14.0831 43.8094
CA 19.3237 -21.5339 22.199
CA 16.4348 -7.52249 82.5303
CA 31.0279 28.5553 50.4156
CA 5.038 -27.3502 80.3917
CA 17.5946 -22.1502 64.4359
CA 32.0625 -4.28454 57.6165
CA 11.5557 -17.0014 69.7663
CA 16.3301 11.5898 29.3303
CA 30.3455 3.1693 37.9579
CA 5.57104 -24.1843 80.8207
CA 32.2212 -43.3348 51.956
CA 21.1637 -4.20165 82.8652
CA 31.4994 -3.16392 24.4296
CA 24.6978 -23.0612 58.2132
CA 21.8819 1.38773 53.8914
CA 26.4751 1.15849 60.1239
CA 15.1045 -20.5732 71.1959
CA 15.6729 -15.2806 77.7497
CA 26.4528 14.49 35.9925
CA 11.3583 -2.88868 61.2485
CA 15.9007 -26.6353 53.4266
CA 4.21177 -30.8343 80.1546
CA -3.539 -9.44673 37.7384
CA 22.2545 -16.8177 47.3685
CA 25.9385 -32.2428 50.8872
CA 17.8554 -6.06352 79.5904
CA 13.5301 1.85959 67.1954
CA 8.76728 -24.4164 59.9047
CA 18.3094 -24.2577 27.3317
CA 11.188 -18.6578 22.0184
CA 30.518 -19.0905 34.8127
CA 23.5575 -33.6578 38.5905
CA 13.4876 -24.5957 45.2598
CA 17.0897 1.40595 65.3101
CA 29.6726 -22.5497 54.7789
CA 12.8692 -22.5216 52.3248
CA 14.442 -6.3938 27.115
CA 13.8983 -13.5991 14.1914
CA 46.5005 -8.48799 36.0078
CA 22.943 -2.69867 22.9197
CA 27.3293 -31.9154 53.8578
CA 35.273 -4.61354 67.6926
CA 18.2017 -23.403 48.4993
CA -2.04529 -20.4101 43.5495
CA 23.009 2.26428 24.0532
CA 9.31432 -21.5335 55.8983
CA 39.5984 -8.68674 40.7318
CA 13.5543 -9.63982 50.9468
CA 28.8437 -16.1336 52.3055
CA 37.7273 -6.63974 44.7633
CA 30.7043 -11.4333 54.6783
CA 4.43722 -12.2299 88.1529
CA 25.3812 -5.8083 25.191
CA 32.32 -18.3009 58.704
CA 42.3662 2.40008 71.1266
CA -3.19735 -30.8027 64.5891
CA 22.2967 -29.4649 58.8198
CA 30.2119 6.40491 36.8982
CA 32.0416 3.76545 36.9861
CA 25.4298 -3.67783 65.4806
CA 20.9831 -26.9145 64.3651
CA 25.3939 -18.7022 77.2196
CA 12.9928 -13.7906 16.6866
CA 20.0698 -24.3582 77.2371
CA 12.2268 1.35652 65.4292
CA 7.32697 6.37078 56.4319
CA 33.218 -41.6913 45.8054
CA 22.0059 -20.201 41.5116
CA 10.5393 -26.9373 58.5081
CA -1.30106 -9.93645 42.4649
CA 20.8487 -9.51886 63.1774
CA 29.9705 -1.48561 63.0804
CA -0.711116 -9.39373 45.9604
CA 18.8061 -16.1532 38.2046
CA 22.4124 -23.5601 29.1701
CA 14.3003 -24.2327 54.5728
CA 32.6646 -8.50731 56.5454
CA 22.7761 -26.9703 57.385
CA 2.1996 -28.2104 80.2436
CA 34.6693 1.94742 68.1789
CA 39.6002 -15.0075 64.4116
CA 41.9279 -1.09826 41.1813
CA 17.8483 13.7042 39.5325
CA 27.7159 -6.37905 44.4246
CA 36.1717 1.34117 58.9242
CA 24.1873 -22.7476 45.2835
CA 22.6194 -27.4142 55.6009
CA 13.0119 3.58244 66.0504
CA 45.8346 3.48976 33.367
CA 16.5675 -22.7207 42.1603
CA 0.547316 -21.2757 53.7702
CA 36.8404 0.531398 72.6357
CA 14.8155 10.6172 45.923
CA 8.01718 3.00312 56.7965
CA 16.9812 -5.70559 81.7525
CA 19.0143 6.00162 62.8386
CA 28.5219 3.53776 64.4144
CA 32.2053 -20.3981 84.761
CA 37.209 -16.0928 60.12
CA 17.3783 -3.21512 66.915
CA 17.6951 -17.35 59.4434
CA 24.8784 -18.3694 44.8757
CA 28.2375 -0.981895 63.2095
CA 49.1302 1.96171 33.2794
CA 44.2308 -0.289879 42.575
CA 19.8098 -6.82542 58.9331
CA 13.9605 -21.2239 63.5082
CA 30.7222 19.2777 49.4656
CA 19.6027 -17.6977 44.621
CA 10.4448 -23.7209 50.1283
CA 25.8099 21.1428 32.3916
CA 29.5526 25.7858 46.1026
CA 33.7912 3.176 65.0865
CA 27.3759 -11.525 51.2713
CA 13.1417 17.4127 41.8339
CA 22.4999 -46.7827 43.671
CA 38.3507 -9.53848 41.8882
CA 25.6822 4.88902 37.8317
CA 29.379 -22.009 70.2668
CA 26.4994 9.45317 49.8692
CA 8.9242 -29.5943 59.2574
CA 11.0529 -6.17607 65.9135
CA 10.5021 -4.08035 60.1822
CA 30.3648 1.45531 59.2225
CA 30.1373 19.1103 44.3763
CA -2.8396 -9.74064 51.1052
CA 2.57428 -21.9149 74.4277
CA 11.1768 -9.0066 46.6959
CA 53.3358 -3.21288 43.962
CA 30.6358 -43.0834 46.8416
CA 18.3648 -14.6732 22.9822
CA 20.6203 19.1531 32.0362
CA 6.46805 -8.41568 85.1494
CA 36.2963 -5.17367 34.4678
CA 20.0054 -5.49921 79.6553
CA 35.3355 5.05132 59.0627
CA 20.2599 3.87017 59.5933
CA 1.20226 -7.97079 53.0894
CA 23.4466 -5.44117 65.0522
CA 2.59574 -21.7301 53.0213
CA 29.8269 -14.2579 58.0185
CA 28.7171 -24.4412 75.8458
CA 30.1677 -30.4723 33.8046
CA 25.9127 2.72487 66.204
CA 30.1344 26.517 55.6892
CA 28.0773 -4.90913 39.838
CA 21.8406 4.44771 36.1978
CA 14.8107 -26.9617 51.4545
CA 9.77967 5.20647 58.7513
CA 24.2406 -12.8879 29.6312
CA 28.9728 -21.9266 88.5875
