489

CA 7.9303 -15.6429 56.477
CA 10.369 -13.7314 30.2694
CA 24.7499 -18.569 52.832
CA 28.5561 -17.4577 57.7442
CA 18.3014 7.78034 64.1253
CA 1.75846 -19.0387 50.3948
CA 7.74538 -18.7057 26.929
CA 41.5063 -10.4327 42.1279
CA 6.65253 -28.9112 61.1244
CA 22.398 -25.1715 33.2407
CA 26.9513 -36.4179 41.3916
CA 3.84924 -13.8224 70.1098
CA 22.2111 -18.9987 56.5564
CA 21.3778 -6.05773 70.1635
CA 22.4628 10.8464 34.7671
CA 15.7459 -16.8035 55.9113
CA 42.4917 -8.04701 39.8899
CA -1.53488 -21.4312 48.0551
CA 14.423 -14.7296 12.2118
CA -0.755653 -12.7175 50.4419
CA 18.2066 -22.1918 53.2038
CA 5.63017 -17.7189 16.1085
CA 20.5406 -9.90451 72.2513
CA 27.7491 25.4221 46.5265
CA 25.8844 -18.5842 50.722
CA -5.23387 -14.3607 34.3402
CA -4.40366 -35.2802 63.5097
CA 6.6862 -7.5052 52.9562
CA 17.1876 17.8234 38.1429
CA 3.52762 -14.9352 51.2641
CA 24.9628 -12.7062 23.8049
CA 51.9669 -1.51464 43.4096
CA 5.15546 -29.5363 49.6081
CA 42.931 -1.93872 34.9533
CA 13.0752 -26.9954 50.0965
CA 18.6703 -6.1699 61.9167
CA 21.8347 -9.14949 74.3182
CA 32.5609 -7.35084 54.6128
CA 26.7533 4.72295 60.2678
CA 9.00435 -18.3751 56.5538
CA 6.74913 -16.8995 57.4779
CA 20.2811 -9.15023 76.1617
CA 34.9477 8.51215 44.5667
CA 22.1465 17.5724 27.1915
CA 23.0177 -20.0687 58.1217
CA 16.8253 -18.1629 59.6218
CA 23.1009 -30.914 54.8331
CA 26.8474 -7.96576 20.1947
CA 11.891 -7.94059 34.1753
CA -1.86161 -14.2712 41.7739
CA 20.8052 -18.6744 73.656
CA 50.3464 -8.16687 40.1179
CA 22.1458 -17.6894 31.3875
CA 25.3876 -17.8554 30.2928
CA 12.8922 -27.7632 33.6288
CA 22.3359 -18.31 33.1771
CA 19.9689 -25.8608 33.0126
CA 30.1781 -3.6015 65.0681
CA 19.7789 -17.2911 60.9563
CA 17.5108 19.9429 42.5213
CA 16.7227 16.4355 45.6969
CA 32.412 10.5379 41.8746
CA 29.2979 -15.5697 77.8084
CA 7.95107 -13.6583 18.2741
CA 10.8697 -28.3513 45.8365
CA 23.7862 -37.0948 38.4129
CA 15.8915 9.92336 37.5847
CA 3.62565 -18.2652 70.8486
CA 37.066 -22.5543 76.0814
CA 44.5272 0.468724 45.1452
CA 4.93835 1.48998 33.3354
CA 24.8404 -22.8149 38.7306
CA 3.41299 -7.48166 53.0129
CA 15.4216 -22.2875 33.4425
CA 29.9771 -40.7078 37.0829
CA 17.2579 16.4233 52.8745
CA 27.4156 26.3711 42.1564
CA 17.2405 -22.72 30.555
CA 10.7772 -31.9975 57.6213
CA 30.5669 8.18864 52.2637
CA 1.18322 -10.0167 81.4186
CA 28.3666 -11.2022 53.3588
CA 8.79543 -7.38295 85.868
CA 7.93015 -20.2621 70.9169
CA 6.52424 -27.1579 77.324
CA 4.59972 -22.8551 77.2768
CA 4.91923 -30.05 70.366
CA 16.9092 0.987867 58.9693
CA 19.6725 -25.2932 26.5368
CA 12.404 -11.6663 62.4413
CA 14.2129 -4.33884 31.9089
CA 18.3504 -24.6058 61.499
CA 36.3787 1.50309 34.4392
CA 6.78505 -29.1688 51.3021
CA 25.0778 -16.6288 56.9498
CA 4.98053 -12.1273 61.667
CA 9.83192 -21.0693 29.0618
CA 39.6514 0.58641 31.2757
CA 8.7067 -16.5661 25.2296
CA 8.00049 -17.3029 18.2784
CA 45.7439 -0.000503955 35.1086
CA 23.108 1.3029 47.5653
CA 47.3488 3.25808 44.7998
CA 26.9885 5.66818 52.1048
CA 14.912 -3.95283 57.2378
CA 24.3292 -10.952 73.8136
CA 27.5661 -17.9652 74.554
CA 2.41028 -21.0605 49.7332
CA 18.821 -9.41332 77.1881
CA 23.8347 -20.4074 47.5009
CA 27.2702 -34.3131 42.6685
CA 38.1949 -3.41772 33.2417
CA 22.9876 -19.4871 82.0506
CA 26.511 -0.682986 53.0257
CA 22.7906 -21.4471 51.9005
CA 14.0295 -3.86235 53.0715
CA 30.4581 -44.487 57.2905
CA 13.2753 -24.0926 46.3451
CA 16.397 -18.6759 73.6761
CA 27.4152 -22.46 46.1378
CA 31.7052 -42.3937 56.8297
CA 22.3213 -14.881 71.5393
CA 21.0564 2.712 56.8828
CA 24.5958 12.3488 41.6972
CA 31.934 -7.63286 28.859
CA 21.3151 0.276595 47.5168
CA 21.7161 -29.8986 41.6204
CA 13.1243 -13.5147 18.616
CA 35.0504 9.20168 48.3166
CA 30.9518 -4.46225 37.243
CA 26.7459 -37.9524 50.545
CA 20.8422 -11.1445 74.1518
CA -2.79559 -14.4905 33.6426
CA 25.6747 -28.3798 57.9082
CA 18.5891 18.51 41.101
CA 30.2456 -16.5927 58.29
CA 24.8583 -42.798 39.6443
CA 25.7326 24.9594 32.7997
CA 26.0587 -7.16044 23.3673
CA 19.7493 10.0829 58.3908
CA 27.0411 -32.9834 39.2564
CA 13.0181 -1.16215 57.6411
CA 12.2763 -14.3865 69.5921
CA 27.0505 -26.0666 36.2684
CA 16.8271 -17.6882 62.9623
CA 13.3535 -16.2386 28.0266
CA 29.0175 23.4199 42.658
CA 38.9584 -19.0496 78.6777
CA 3.94193 -29.4209 76.3976
CA 16.4448 4.97355 58.6147
CA 15.7808 -7.60998 69.5012
CA 11.018 -0.382574 60.394
CA 14.1262 -9.42421 80.9473
CA 4.75074 -12.8428 44.8277
CA 31.2514 2.10522 62.2346
CA 23.5382 -9.26762 75.8884
CA 42.4383 7.80937 40.6682
CA 21.7351 3.46518 59.676
CA 43.7408 -4.56165 34.5825
CA 10.407 -10.2441 84.5304
CA 25.5656 0.62055 72.5983
CA 2.17698 -31.1091 63.4482
CA 25.1989 -24.6999 47.7014
CA 13.36 12.2956 53.8423
CA 20.5515 -20.2414 79.8277
CA 7.91155 -23.3202 78.083
CA 11.7864 -14.7199 14.856
CA 3.95238 -11.8857 67.4876
CA 36.3779 -13.4857 45.3379
CA 33.3448 -5.92543 29.9418
CA 9.62232 -31.0199 46.9202
CA 27.3322 -32.3395 58.6802
CA 13.4079 -3.86883 36.0883
CA 0.743742 -9.42792 88.2579
CA 35.5375 -21.6873 81.755
CA 19.8083 6.10413 49.515
CA 29.7547 -3.75935 70.8676
CA 12.2636 -12.7584 65.0262
CA 28.4118 -34.7535 37.3985
CA 8.14424 -19.5336 58.2601
CA 17.5315 6.16973 54.7519
CA -0.877891 -24.1357 73.4449
CA 25.5579 -10.1047 80.0916
CA 10.7169 -9.94962 38.9884
CA 15.3063 -1.95127 56.7466
CA 23.3466 -39.3372 47.4296
CA -11.4314 -12.4402 37.1233
CA 1.67682 -4.98816 40.6982
CA 39.5699 -11.2388 41.7526
CA 30.4699 -11.29 58.2112
CA 4.75958 -23.1283 52.6763
CA 13.2947 1.18967 58.7992
CA 32.4659 -37.1638 56.4114
CA 2.71165 -14.856 60.9703
CA 28.24 -38.7791 51.8236
CA 29.6245 -21.3232 75.1971
CA 6.05361 -4.96397 39.947
CA 13.8823 0.345506 57.0939
CA 19.5933 -20.3384 71.451
CA 28.3175 -19.1793 58.5477
CA 38.5895 14.9386 42.5371
CA 14.9355 13.3905 53.9431
CA -0.280731 -13.1656 56.1082
CA -2.53566 -14.4291 29.6044
CA 25.5946 13.9707 48.8982
CA 13.7077 8.35955 56.4696
CA 45.4636 -4.78419 35.1917
CA 33.6786 -9.06256 31.5946
CA 25.3108 12.1094 34.5779
CA 6.65346 -0.450805 59.8796
CA 38.5122 -1.50468 28.4406
CA 31.4974 7.07479 33.1983
CA 42.8398 -5.41683 32.5426
CA 3.62109 -17.7371 47.0803
CA 4.75242 -12.562 57.2149
CA 16.5504 9.41303 61.7096
CA 31.433 -17.3053 88.6506
CA 7.71958 -4.92539 38.7767
CA 27.3342 -17.3982 48.5922
CA 15.2307 -20.3123 46.8202
CA 23.6779 -29.3267 37.1281
CA 0.244537 -25.4215 67.233
CA 7.08212 -11.6638 46.6508
CA -2.84275 -26.2806 50.1458
CA 21.2241 -2.24395 57.4407
CA 13.9365 11.3609 51.8123
CA 22.0726 -4.49792 58.6778
CA 50.6886 -8.96461 37.5548
CA 5.71032 -16.8262 71.3769
CA 23.5391 -1.23669 57.6179
CA 12.4039 0.870829 63.4506
CA 18.517 -17.2035 30.0952
CA -0.552694 -18.0302 46.9215
CA 29.0281 27.4969 48.3712
CA 32.2848 -38.6298 31.4441
CA 21.2044 2.05746 46.619
CA 21.5196 -13.2583 33.908
CA 43.8538 0.686246 42.4686
CA 12.5949 -17.9077 25.8224
CA -0.559785 -10.7282 35.4253
CA 15.3875 13.854 32.3051
CA 11.9012 9.66421 34.0477
CA 17.0894 -1.7948 85.3857
CA 28.0619 -7.82201 27.7724
CA 25.108 -14.1898 30.9498
CA 9.42337 -23.4637 54.0918
CA 30.2913 8.66245 44.2824
CA -3.71055 -17.0514 52.6582
CA 28.2203 5.92188 48.7395
CA 16.4944 9.23899 58.4052
CA 46.9714 -1.6213 41.7535
CA 25.9305 -6.44247 38.861
CA -2.83038 -25.908 64.712
CA 44.8576 -0.883175 39.2356
CA 29.9221 -15.3446 30.1414
CA 30.3866 11.8258 41.8724
CA 24.1271 -32.6015 51.8074
CA -3.44082 -19.2257 46.7298
CA -0.330741 -6.66552 37.5004
CA 19.5377 -21.048 34.6542
CA 15.4979 -18.9378 70.3301
CA 40.6638 -6.39093 34.6808
CA 47.8391 -4.72099 36.7187
CA 15.4705 3.98839 54.7428
CA 28.2051 -36.825 52.5538
CA 34.0344 -6.68813 55.5006
CA 18.1708 -16.6117 59.9541
CA 23.2247 -16.3802 28.8174
CA 17.242 18.1568 43.0636
CA 17.4498 -4.35346 61.9457
CA 14.6753 16.9082 47.6024
CA 9.264 -25.3264 78.895
CA 3.66421 -15.6095 55.7738
CA 27.8348 -35.8082 38.8645
CA -7.80864 -14.2647 39.2082
CA 12.6856 -9.60254 68.3884
CA -1.9005 -26.546 51.7317
CA 1.27876 -19.5947 73.9592
CA 33.0747 4.98811 34.1803
CA 11.296 -26.3311 77.8502
CA 21.6619 -18.8009 60.079
CA 20.3897 -3.40518 61.5157
CA 12.6746 -29.4177 49.5804
CA 36.311 -1.00168 49.4548
CA 8.82017 -29.2815 47.8994
CA 13.995 16.013 57.2668
CA 28.7238 3.88139 60.3849
CA 25.1673 16.2157 48.0139
CA 32.0775 -6.06349 49.1564
CA 15.6538 -24.279 56.8407
CA 27.1854 -32.0902 51.3323
CA 7.02922 -2.57353 38.7937
CA 24.4619 -20.6725 51.6659
CA 23.6603 3.38903 49.1807
CA 12.9909 -21.1174 47.5867
CA 30.3551 -18.6994 60.62
CA 27.8963 27.2962 46.4543
CA 1.36063 -23.8553 68.7806
CA 10.257 -17.2566 20.1412
CA 28.5046 -31.1976 40.7021
CA 32.315 -37.227 33.6307
CA 15.3074 -22.9037 47.3502
CA 14.6979 -13.4827 59.6475
CA 15.8327 1.87244 86.3803
CA 28.0259 -38.6979 41.0463
CA 32.6923 -9.5705 28.0374
CA 26.7264 -18.259 55.1371
CA 27.7753 0.387956 64.5173
CA 17.5273 -17.2043 34.7204
CA 28.9095 -12.6101 49.436
CA 35.7148 -3.95048 45.8377
CA 24.1025 -18.8244 59.5576
CA 36.7812 -3.44605 62.8729
CA 24.747 -41.2961 35.8895
CA 4.32303 -31.6124 69.3612
CA 19.7318 -14.9822 70.5718
CA 24.0636 -17.5566 31.6911
CA 14.4188 -24.7097 35.8256
CA 22.6146 -19.7922 44.5052
CA 20.0362 12.8562 52.0099
CA 32.7186 -17.2516 57.133
CA 11.1102 -0.776573 55.6503
CA 7.98471 -9.37408 53.676
CA 14.7034 -3.7654 80.8085
CA 25.0576 -39.9057 41.1702
CA 10.3077 12.6206 54.3644
CA 14.7341 10.1937 57.0049
CA 25.2025 -20.4288 79.6268
CA 18.715 -1.51278 58.3706
CA 21.7825 -16.6119 54.5961
CA 18.1368 9.97829 51.4874
CA 32.3056 -21.4813 86.2571
CA 5.9509 -21.8922 73.8898
CA 25.2461 1.95751 49.7723
CA 12.0616 -5.80289 84.9713
CA 17.0412 14.0592 49.3851
CA 45.182 -8.82512 42.2627
CA 31.0654 5.71439 42.1504
CA 4.68604 -18.0436 29.311
CA 7.30452 -4.62253 60.5647
CA 18.4717 -0.495532 64.7889
CA 17.223 -5.0394 63.6756
CA 28.8876 -21.0706 47.5877
CA 15.7031 -27.7273 40.4058
CA 35.8379 2.89413 44.8155
CA 19.6115 -20.8277 50.9994
CA 32.2141 -22.3304 76.5288
CA 15.7974 -8.96068 25.08
CA 5.09366 -16.4635 27.3436
CA 16.1991 11.4808 40.5418
CA 27.7541 17.8725 44.8278
CA 7.30309 -16.3879 21.7585
CA 16.4203 -15.0956 22.4168
CA 21.5155 -13.3733 69.4599
CA 15.1045 -20.5732 71.1959
CA 17.0504 -11.6628 19.5046
CA 3.10521 -7.72647 50.548
CA 26.7445 -0.879152 59.2121
CA 17.7854 -26.1906 60.0808
CA 24.019 -17.2017 60.7826
CA 18.9533 -24.8666 64.0857
CA 34.7404 1.4895 45.3514
CA 0.705449 -10.7787 50.3728
CA 17.8554 -6.06352 79.5904
CA 2.3906 -22.7772 45.2793
CA 18.6496 4.35261 55.1326
CA 19.1205 15.1342 36.4983
CA -5.4639 -17.3763 54.383
CA 10.9029 -14.1849 19.1816
CA 15.7555 -4.81108 58.8195
CA 28.9038 17.0366 40.8049
CA 25.4304 -20.7105 75.9493
CA 30.4839 -0.90114 68.9004
CA 1.66825 -9.99009 48.9534
CA 4.98283 -2.80051 34.3596
CA 1.46509 -14.6945 75.0041
CA 24.0061 -21.0044 39.3954
CA 8.90647 -8.23733 52.0832
CA 6.95381 -27.599 52.6525
CA 5.26851 -1.76138 60.6897
CA 1.50468 -0.576391 43.1135
CA 24.8702 -16.8231 26.5116
CA 26.6021 1.17677 70.3554
CA 28.7664 -22.4615 73.3552
CA 39.5984 -8.68674 40.7318
CA 15.799 -15.0515 17.6197
CA 41.2104 -2.02398 31.0366
CA 29.0296 -16.3532 76.1236
CA 16.2433 -26.5017 50.4074
CA 3.60046 -19.1823 54.3644
CA 38.3825 1.37446 46.2729
CA 11.6687 3.83502 56.4829
CA -1.67255 1.34193 42.6453
CA 29.0633 -28.2206 36.2233
CA 9.76381 -20.2679 16.6707
CA 17.906 -4.82874 34.207
CA 5.58015 -17.4953 25.391
CA 3.67896 -18.3754 73.0532
CA 48.0994 -6.74202 38.9927
CA 23.9502 -2.53791 47.8074
CA 12.9928 -13.7906 16.6866
CA 16.2176 -18.0982 54.4875
CA 35.9715 -0.365312 45.6285
CA 11.2958 -9.15632 64.9071
CA 19.0469 -6.19914 48.9798
CA 45.9733 2.45329 34.6362
CA 27.4187 -30.8281 56.8049
CA 3.82077 -23.623 54.8729
CA 29.0172 -17.6957 53.2298
CA 32.8244 4.26261 38.4314
CA 14.4817 -2.54872 38.361
CA 34.6326 -12.8788 31.6007
CA 46.6568 3.06018 30.892
CA 39.0866 -21.1897 76.951
CA 16.8651 -22.685 61.8119
CA 23.2215 11.2817 32.321
CA 29.8003 27.2156 50.361
CA 2.26713 -19.6522 57.4875
CA -9.32276 -15.9577 41.2277
CA 17.5753 -24.5248 56.6796
CA 13.5396 -11.7757 67.0911
CA 12.5831 -24.1663 33.7046
CA -4.19596 -28.4487 67.2272
CA 23.4755 -25.3678 53.9086
CA 2.43754 -15.6068 28.9194
CA 7.16551 -16.6366 29.4773
CA 16.7216 -6.70117 34.465
CA 16.9872 -3.22818 80.879
CA 18.1252 -18.5437 57.9324
CA 31.4198 -38.9772 53.7123
CA 20.9692 -29.9344 54.7815
CA 26.1482 -26.903 51.9107
CA 27.5712 -2.86125 69.9405
CA 0.0965899 -11.5006 38.8201
CA 23.7123 -28.8741 40.6172
CA 1.89294 -29.4934 65.9142
CA 19.3929 -8.6214 66.5133
CA 22.6287 -14.8466 24.9817
CA 10.9161 -1.18502 35.666
CA 36.3997 -1.93437 59.8904
CA 22.5055 -21.5312 76.7693
CA 7.40763 -21.6628 30.986
CA 27.9712 -2.5869 54.7796
CA 31.429 -5.06226 51.1993
CA 20.2981 -17.9697 32.4062
CA 9.24795 2.76987 54.5008
CA 22.1457 4.37576 52.0112
CA 10.4448 -23.7209 50.1283
CA 5.30253 -7.27013 89.1151
CA 29.5526 25.7858 46.1026
CA 29.4936 16.6457 45.2078
CA 33.9266 -0.399485 46.2017
CA 17.2039 -20.439 32.3114
CA 9.1179 -16.6672 67.8454
CA -0.461613 -21.5309 70.7316
CA 13.3309 -24.3586 59.8247
CA 9.58214 -14.7815 28.3509
CA 27.2788 9.3849 45.4847
CA 8.9242 -29.5943 59.2574
CA 6.52514 -31.2635 66.9799
CA 14.6513 -21.1306 56.0926
CA 16.7861 15.519 27.2511
CA 30.1373 19.1103 44.3763
CA 3.87044 -7.00397 85.4285
CA 11.1497 -22.1581 78.4215
CA 34.4059 -17.7649 55.338
CA 39.6977 5.12456 41.9013
CA 33.316 0.474797 61.5515
CA 27.8947 -15.6938 48.9182
CA 4.89076 -21.2638 59.0007
CA 6.46805 -8.41568 85.1494
CA 15.1179 -28.6104 48.9311
CA 21.3021 -2.87132 47.713
CA 20.8002 -35.5472 39.6393
CA 31.7141 -11.0972 59.5851
CA 28.561 -3.20602 67.4716
CA 19.9375 -13.8721 32.9142
CA 12.6046 0.467432 38.1262
CA 0.663975 -6.67087 35.3432
CA 22.5335 -25.4184 60.2978
CA 21.7143 -15.8657 32.217
CA 13.991 -15.1249 67.6313
CA 27.3838 3.42036 53.0839
CA 28.0773 -4.90913 39.838
CA 27.6872 -30.1618 53.1246
CA 29.9694 -16.356 52.2097
CA 32.2495 0.144893 34.5917
CA 0.187122 -18.652 49.3205
CA 28.5384 0.948318 72.7968
