489

CA 7.9303 -15.6429 56.477
CA 16.3829 -20.3386 28.5814
CA 8.38514 -28.3607 71.452
CA 28.5561 -17.4577 57.7442
CA 18.3014 7.78034 64.1253
CA 1.75846 -19.0387 50.3948
CA -1.39904 -4.78695 41.3143
CA 41.5063 -10.4327 42.1279
CA 41.0191 -25.2071 77.753
CA 21.6839 -25.6391 47.8788
CA 37.0316 13.7396 44.3927
CA 3.84924 -13.8224 70.1098
CA 22.2111 -18.9987 56.5564
CA 21.3778 -6.05773 70.1635
CA 22.4628 10.8464 34.7671
CA 24.9949 -13.2318 23.2473
CA 24.1025 13.7869 52.5617
CA 22.1573 8.17403 86.3396
CA 23.8516 -16.5633 57.8249
CA -0.755653 -12.7175 50.4419
CA 20.9648 -28.5673 47.9906
CA 5.63017 -17.7189 16.1085
CA 20.5406 -9.90451 72.2513
CA 10.4234 -15.2024 28.3203
CA 25.8844 -18.5842 50.722
CA -5.23387 -14.3607 34.3402
CA 14.6773 15.2543 52.4558
CA 6.6862 -7.5052 52.9562
CA 19.9876 -1.7739 50.5468
CA 23.8057 7.91439 58.7176
CA 6.69359 -18.6714 54.9326
CA 9.86916 -12.1153 31.2128
CA 5.15546 -29.5363 49.6081
CA 42.931 -1.93872 34.9533
CA 2.22657 -14.2877 56.4684
CA 15.3365 -18.8953 53.1678
CA 26.8068 -11.4602 31.498
CA 32.5609 -7.35084 54.6128
CA 26.7533 4.72295 60.2678
CA 9.00435 -18.3751 56.5538
CA 10.0393 -7.05564 38.6148
CA 24.852 -25.4963 34.9054
CA 34.9477 8.51215 44.5667
CA 23.6727 -20.9139 27.6175
CA 45.5694 6.40356 44.0931
CA 16.8253 -18.1629 59.6218
CA 23.1009 -30.914 54.8331
CA 16.5204 -27.5744 38.7781
CA 29.922 -18.63 52.6013
CA 23.1723 -29.4684 53.6926
CA 20.8052 -18.6744 73.656
CA 50.3464 -8.16687 40.1179
CA 12.5381 -7.78786 81.4154
CA 14.2767 11.8625 32.1724
CA 28.3563 -18.177 14.6627
CA 25.1384 -21.3613 30.1032
CA 17.7204 -3.55279 78.1424
CA 19.4275 8.40527 84.0699
CA 19.7789 -17.2911 60.9563
CA 16.6495 -3.72173 84.4086
CA 16.7227 16.4355 45.6969
CA 16.7938 -2.44858 41.9263
CA 29.2979 -15.5697 77.8084
CA 27.7715 -15.1191 58.9486
CA 24.463 -23.2534 57.8501
CA 19.4412 -28.5154 55.5758
CA 25.2998 -17.1327 73.1826
CA 13.3348 -4.29797 40.1085
CA -1.68499 -17.223 48.5392
CA 44.5272 0.468724 45.1452
CA 4.93835 1.48998 33.3354
CA 22.3072 -4.55034 63.6228
CA 3.41299 -7.48166 53.0129
CA 28.4615 7.92675 48.1904
CA 29.9771 -40.7078 37.0829
CA 15.9972 -16.5619 73.2621
CA 27.4156 26.3711 42.1564
CA 24.4336 -18.8136 47.9169
CA 10.7772 -31.9975 57.6213
CA 15.4568 -14.0202 70.544
CA 23.938 -1.76245 51.672
CA 7.43759 -1.5897 35.9879
CA 12.0673 -3.41398 42.2526
CA 7.93015 -20.2621 70.9169
CA 25.5341 -29.0448 55.9881
CA 4.59972 -22.8551 77.2768
CA 16.3627 -1.518 58.859
CA 20.5293 -26.2522 60.2911
CA 19.6725 -25.2932 26.5368
CA 12.404 -11.6663 62.4413
CA 30.9048 -35.7132 34.6368
CA 18.3504 -24.6058 61.499
CA 36.3787 1.50309 34.4392
CA 6.78505 -29.1688 51.3021
CA 35.1831 23.5893 45.9537
CA 15.6702 -10.5585 70.9399
CA 27.938 -1.28861 73.5101
CA 39.6514 0.58641 31.2757
CA 8.7067 -16.5661 25.2296
CA 24.3854 -35.423 43.9183
CA 15.8719 -28.0016 45.3762
CA 42.0533 3.87559 42.3827
CA 14.4867 11.93 49.84
CA 26.9885 5.66818 52.1048
CA 24.2645 6.78067 47.3122
CA 23.2247 -10.8298 33.0656
CA 20.3213 -15.0994 18.5517
CA 2.41028 -21.0605 49.7332
CA 18.821 -9.41332 77.1881
CA 27.233 -23.7842 34.5302
CA 4.30903 -18.5335 67.4946
CA 13.2568 -9.69689 28.5482
CA 24.9744 -2.52635 59.1155
CA 8.85395 -27.9702 46.0354
CA 22.7906 -21.4471 51.9005
CA 6.58561 -15.3356 66.5367
CA 12.088 -26.1509 54.0259
CA 24.0069 -22.5785 55.0051
CA 38.2051 6.58066 39.846
CA 8.52865 -32.7611 50.2654
CA 0.362052 -31.8569 67.4439
CA 22.3213 -14.881 71.5393
CA 21.0564 2.712 56.8828
CA 9.71032 -11.8066 33.0001
CA -0.788723 -21.024 71.4482
CA 21.3151 0.276595 47.5168
CA 21.7161 -29.8986 41.6204
CA 25.6187 -23.0798 36.5022
CA 13.0859 -26.3374 49.6947
CA 30.9518 -4.46225 37.243
CA 26.7459 -37.9524 50.545
CA 33.2376 25.7481 43.1449
CA -2.79559 -14.4905 33.6426
CA 25.6747 -28.3798 57.9082
CA 18.5891 18.51 41.101
CA 30.2456 -16.5927 58.29
CA 27.5319 -23.4242 40.5003
CA 34.0936 8.68011 32.8866
CA 26.3494 2.95862 50.9288
CA 35.5694 -4.81834 49.4701
CA 23.8101 -23.2544 29.2021
CA 17.235 -3.64039 36.6569
CA 3.40773 -31.3414 74.2731
CA 27.0505 -26.0666 36.2684
CA 16.8271 -17.6882 62.9623
CA 13.3535 -16.2386 28.0266
CA 23.4051 -24.9383 42.2354
CA 25.329 3.18708 58.0088
CA 3.94193 -29.4209 76.3976
CA 16.4448 4.97355 58.6147
CA 26.8402 -35.2336 52.0813
CA 29.2348 10.6888 30.5964
CA 14.1262 -9.42421 80.9473
CA -6.63997 -15.0888 31.7457
CA 22.315 -8.93165 68.4858
CA 23.5382 -9.26762 75.8884
CA 4.19769 -14.0682 46.0768
CA -2.22872 -16.5743 31.7616
CA 24.4831 11.438 30.9672
CA 10.407 -10.2441 84.5304
CA 25.5656 0.62055 72.5983
CA 2.17698 -31.1091 63.4482
CA 15.1319 -28.0207 33.5278
CA 44.0543 8.18304 44.5798
CA 6.82726 -17.8257 70.6203
CA 7.91155 -23.3202 78.083
CA 15.7213 5.72248 54.0786
CA 46.417 6.97854 37.5298
CA 36.3779 -13.4857 45.3379
CA 48.9268 -8.31279 44.7132
CA 14.5266 -11.5928 10.0357
CA 6.0856 1.84514 55.8398
CA 13.4079 -3.86883 36.0883
CA 10.2562 -9.82459 13.7064
CA 21.3627 -1.37984 45.377
CA 19.8083 6.10413 49.515
CA 9.24915 -12.5825 28.5213
CA 12.2636 -12.7584 65.0262
CA 28.4118 -34.7535 37.3985
CA 7.64177 -3.26161 86.0366
CA 17.5315 6.16973 54.7519
CA 11.6519 -1.83041 37.7119
CA -2.7564 -28.5354 50.2712
CA 25.6002 2.14538 76.6081
CA 15.3063 -1.95127 56.7466
CA 23.3466 -39.3372 47.4296
CA -11.4314 -12.4402 37.1233
CA 1.67682 -4.98816 40.6982
CA -0.953986 -23.8429 47.1495
CA 30.4699 -11.29 58.2112
CA 29.9335 0.492091 57.766
CA 21.4473 -5.08172 44.8822
CA 16.3284 5.87386 89.5385
CA 18.2405 -5.214 82.2543
CA 28.24 -38.7791 51.8236
CA 37.6169 4.29229 30.0621
CA 6.05361 -4.96397 39.947
CA 15.1587 -27.6626 51.2589
CA 2.27168 -22.4479 74.0253
CA 10.0374 -6.52239 80.6195
CA 21.7686 -0.603707 60.2929
CA 26.2315 -20.3681 51.5
CA -0.280731 -13.1656 56.1082
CA 20.8264 -27.8827 24.3615
CA 18.0138 -30.0977 48.0108
CA 18.3385 -2.29983 62.3177
CA 19.0741 -20.6329 32.0518
CA 12.7194 -3.36753 38.5718
CA 27.9969 -21.1328 36.5278
CA 24.1916 -19.002 37.1509
CA 28.9438 5.17178 41.4972
CA 31.4974 7.07479 33.1983
CA 6.72927 -17.7172 57.2846
CA 3.62109 -17.7371 47.0803
CA 8.95762 -16.6652 20.2157
CA 16.5504 9.41303 61.7096
CA 43.4543 -0.444638 46.6494
CA 7.71958 -4.92539 38.7767
CA 29.9597 -21.6744 51.2077
CA 9.25276 -6.52468 42.3234
CA 23.6779 -29.3267 37.1281
CA 26.3931 13.747 39.1484
CA 31.1578 -12.2104 48.8645
CA -2.84275 -26.2806 50.1458
CA 24.0848 14.0751 41.3953
CA 26.3754 -25.1525 76.8788
CA 22.0726 -4.49792 58.6778
CA 34.8962 6.9555 38.9382
CA 4.72915 -9.96908 57.4261
CA 19.2932 -4.83621 83.7392
CA 21.8545 -8.01096 73.5342
CA 18.517 -17.2035 30.0952
CA 15.6932 -19.2848 55.6597
CA 14.2331 -3.97641 42.3966
CA 24.6168 -18.4661 57.5839
CA 21.2044 2.05746 46.619
CA 21.5196 -13.2583 33.908
CA 16.9557 8.04127 58.2974
CA 43.5328 -4.83733 40.1352
CA -0.559785 -10.7282 35.4253
CA 15.3875 13.854 32.3051
CA 11.9012 9.66421 34.0477
CA 17.0894 -1.7948 85.3857
CA 28.0619 -7.82201 27.7724
CA 25.108 -14.1898 30.9498
CA 14.8235 -0.0713523 54.1705
CA 30.1457 -37.8335 50.8955
CA -3.71055 -17.0514 52.6582
CA 9.90906 -34.0893 61.5956
CA 23.1479 -14.8971 60.1156
CA 46.9714 -1.6213 41.7535
CA 30.0265 -24.7935 70.3875
CA 15.5566 -4.26627 82.3722
CA 23.2244 -19.8065 74.4597
CA 29.9221 -15.3446 30.1414
CA 20.6225 -0.27822 57.5942
CA 13.5182 -25.2387 62.9502
CA 3.12804 -19.8391 57.6881
CA 17.8075 -29.5254 59.5393
CA 4.63211 -16.1357 59.7296
CA 30.1813 23.9026 47.2217
CA 44.8372 8.59082 46.7739
CA 47.8391 -4.72099 36.7187
CA 15.4705 3.98839 54.7428
CA 28.2051 -36.825 52.5538
CA 9.45229 -7.21235 82.5663
CA 13.9016 -27.4196 59.716
CA 13.2019 -10.5442 16.879
CA 17.242 18.1568 43.0636
CA 33.6767 -11.5205 54.2812
CA 36.0006 5.12459 48.3612
CA 46.365 -4.9854 34.8972
CA 3.66421 -15.6095 55.7738
CA 29.6987 -1.64131 63.6655
CA 20.9623 -21.7934 49.8577
CA 12.6856 -9.60254 68.3884
CA 9.42434 -15.0242 64.5716
CA 1.27876 -19.5947 73.9592
CA 20.2299 -10.0406 30.4736
CA 20.9784 11.7539 35.4948
CA 21.6619 -18.8009 60.079
CA 7.00105 -17.6511 65.9502
CA 29.3579 13.2675 42.6718
CA 21.166 -30.0092 56.1098
CA 8.82017 -29.2815 47.8994
CA 13.995 16.013 57.2668
CA 28.7238 3.88139 60.3849
CA 5.8368 -15.7531 69.08
CA 29.8371 -30.7294 59.3147
CA 0.406191 -15.4124 49.1528
CA 50.0871 -9.17455 43.2246
CA 24.3693 -25.2354 47.2048
CA 24.4619 -20.6725 51.6659
CA 35.9546 11.9719 44.2122
CA 15.8981 9.12268 32.2448
CA 17.8696 -15.2889 61.0418
CA 26.4774 -18.8557 75.69
CA 12.6033 -4.79367 58.3559
CA 33.8915 0.618541 31.8202
CA 28.5046 -31.1976 40.7021
CA 20.5934 -30.5546 49.0371
CA 15.3074 -22.9037 47.3502
CA 27.1239 -19.9626 30.2809
CA 15.8327 1.87244 86.3803
CA 28.0259 -38.6979 41.0463
CA 10.8518 -1.09301 33.0228
CA 39.7722 -22.1736 74.0002
CA 24.7718 -20.9188 35.6405
CA -0.332833 -29.2858 67.2538
CA 28.9095 -12.6101 49.436
CA 35.7148 -3.95048 45.8377
CA 16.7929 -26.3041 55.3443
CA 36.7812 -3.44605 62.8729
CA 29.8581 19.3845 37.7546
CA 17.9437 5.45869 56.4848
CA 7.21558 -18.8257 29.9502
CA 3.37306 -19.6217 60.0444
CA 14.4188 -24.7097 35.8256
CA 19.6319 -0.725973 48.201
CA 37.3576 2.53858 40.8844
CA 32.7186 -17.2516 57.133
CA 11.1102 -0.776573 55.6503
CA 44.6493 -9.08887 45.1916
CA 35.5846 0.91587 43.9687
CA 25.3105 -15.9937 17.6571
CA 10.3077 12.6206 54.3644
CA 5.98398 -14.675 60.5535
CA 3.36578 -14.0279 57.9378
CA 18.715 -1.51278 58.3706
CA -3.1291 -12.8722 32.5427
CA 18.1368 9.97829 51.4874
CA 4.64847 -20.4461 55.3796
CA 9.52751 -5.75782 85.1714
CA 29.6672 16.2576 38.8114
CA 12.0616 -5.80289 84.9713
CA 17.0412 14.0592 49.3851
CA 45.182 -8.82512 42.2627
CA 9.6626 -7.86214 34.5715
CA 4.68604 -18.0436 29.311
CA 31.4624 -18.478 74.6978
CA -1.3712 5.65302 42.7621
CA 17.223 -5.0394 63.6756
CA 28.8876 -21.0706 47.5877
CA 15.7031 -27.7273 40.4058
CA 39.9355 -0.0647462 26.8329
CA 28.4608 4.78373 72.7076
CA 32.2141 -22.3304 76.5288
CA 29.0112 -24.2716 34.4166
CA 15.5007 -24.5347 59.8632
CA 11.0489 -26.9853 62.8331
CA 27.7541 17.8725 44.8278
CA 7.30309 -16.3879 21.7585
CA 29.0054 -26.8221 53.0901
CA 29.4856 -21.6239 69.7052
CA 4.65091 -18.3246 76.9257
CA 17.0504 -11.6628 19.5046
CA 6.45774 -15.4056 55.0941
CA 3.99078 -23.1361 58.0491
CA 28.9987 -19.3693 75.5163
CA 30.9983 -0.395474 43.6244
CA 18.9533 -24.8666 64.0857
CA 39.0906 -10.6254 47.1319
CA 32.2302 4.30839 45.1378
CA 17.8554 -6.06352 79.5904
CA -0.189551 -31.3649 64.3716
CA 29.0188 -19.8601 61.3723
CA 19.1205 15.1342 36.4983
CA -5.4639 -17.3763 54.383
CA 20.4759 -2.48331 59.9664
CA 15.7555 -4.81108 58.8195
CA 28.9038 17.0366 40.8049
CA 25.4304 -20.7105 75.9493
CA 30.4839 -0.90114 68.9004
CA 31.7054 -21.9325 73.3168
CA 4.98283 -2.80051 34.3596
CA 1.46509 -14.6945 75.0041
CA 30.6629 9.27497 33.1145
CA 11.4183 -9.78806 11.5971
CA 37.9641 -20.8119 71.0945
CA 25.8117 -25.8368 39.0351
CA 7.86217 -30.7507 64.2184
CA 24.8702 -16.8231 26.5116
CA 32.8609 -38.6803 51.6349
CA 28.7664 -22.4615 73.3552
CA 39.5984 -8.68674 40.7318
CA 26.3735 -24.8755 49.0022
CA 8.22279 -22.1609 59.5192
CA 3.48043 -17.5229 62.756
CA 16.2433 -26.5017 50.4074
CA 3.60046 -19.1823 54.3644
CA 11.7634 -2.19719 51.6764
CA 11.6687 3.83502 56.4829
CA 24.9753 -29.4919 51.1529
CA 17.0758 -3.69538 58.1935
CA 9.76381 -20.2679 16.6707
CA 17.906 -4.82874 34.207
CA 5.58015 -17.4953 25.391
CA 23.664 -14.1057 15.3052
CA 48.0994 -6.74202 38.9927
CA 23.9502 -2.53791 47.8074
CA 12.9928 -13.7906 16.6866
CA 26.8009 -22.7635 82.659
CA 35.9715 -0.365312 45.6285
CA -7.60694 -14.0155 52.8439
CA 38.2993 3.23627 42.8608
CA 27.7203 19.151 47.1595
CA 25.5295 -17.3794 55.0335
CA 12.7001 -1.34399 86.1693
CA 25.774 -25.6976 51.4124
CA 18.9885 -15.8809 57.7535
CA 8.47667 -1.9241 59.5912
CA 34.6326 -12.8788 31.6007
CA 31.108 23.2334 44.481
CA 39.0866 -21.1897 76.951
CA 17.098 0.994824 89.2207
CA 24.5394 -2.79521 70.9363
CA 27.1421 -28.0315 50.4447
CA 26.3943 -0.772736 56.8057
CA 43.6563 6.64914 41.8823
CA 18.2521 0.0522446 49.4691
CA 17.7467 20.1143 44.0985
CA 22.1366 -16.4997 59.5136
CA -4.19596 -28.4487 67.2272
CA 26.6712 -31.5294 40.7653
CA 2.43754 -15.6068 28.9194
CA 7.16551 -16.6366 29.4773
CA 16.7216 -6.70117 34.465
CA -1.44584 -20.7649 57.4536
CA 18.1252 -18.5437 57.9324
CA 31.4198 -38.9772 53.7123
CA 10.815 -19.8983 30.0868
CA 32.9116 13.2541 43.0404
CA 21.422 10.4354 36.6898
CA 9.2302 -35.4652 47.0704
CA 45.6976 7.55142 40.2437
CA 21.2491 -22.9788 25.1239
CA 19.3929 -8.6214 66.5133
CA -7.3561 -16.0767 51.8061
CA 10.9161 -1.18502 35.666
CA 19.5144 -3.44764 56.668
CA 22.5055 -21.5312 76.7693
CA 31.7228 -34.2775 38.288
CA 19.2767 -25.7581 51.7533
CA 31.429 -5.06226 51.1993
CA 7.13656 -0.0596721 59.1688
CA 18.282 -27.9493 49.6528
CA 5.78222 -17.7248 60.2252
CA 10.4448 -23.7209 50.1283
CA 5.30253 -7.27013 89.1151
CA -4.89206 -29.997 68.3647
CA 6.67805 -32.2897 72.2514
CA 27.0097 -18.9794 53.2639
CA 24.5577 -22.0194 33.7233
CA 9.1179 -16.6672 67.8454
CA 25.4421 -17.1635 46.2298
CA 36.8947 -11.9599 43.6122
CA 36.4716 -22.6698 75.2021
CA 20.5773 -30.5768 50.9333
CA 6.48464 -31.9399 62.0023
CA 6.52514 -31.2635 66.9799
CA 13.8301 16.9933 61.6443
CA 25.1949 13.3215 45.1725
CA 29.4877 -27.7467 50.6382
CA 3.87044 -7.00397 85.4285
CA 26.9156 -17.719 23.4671
CA 16.9367 -28.0998 52.3102
CA 39.6977 5.12456 41.9013
CA 33.316 0.474797 61.5515
CA 27.8947 -15.6938 48.9182
CA 12.9339 -16.2775 54.8178
CA 25.9848 -20.586 58.3096
CA 15.1179 -28.6104 48.9311
CA 21.3021 -2.87132 47.713
CA 7.81108 -28.6154 77.9505
CA 7.75414 -15.519 18.1291
CA 23.5707 -27.3385 46.2494
CA 19.9375 -13.8721 32.9142
CA 21.1635 -8.82735 46.0002
CA 0.663975 -6.67087 35.3432
CA 16.8816 -13.9798 19.8128
CA 33.0863 22.2781 47.4405
CA 13.0864 -24.9118 43.0615
CA 13.8418 -1.28944 43.0738
CA 18.1223 1.59854 53.393
CA 27.6872 -30.1618 53.1246
CA 39.0303 5.63272 43.5066
CA 32.2495 0.144893 34.5917
CA 31.5334 1.56889 42.9822
CA 28.5384 0.948318 72.7968
