489

CA 50.0313 7.95467 36.8733
CA 20.9058 1.74441 38.8105
CA 8.38514 -28.3607 71.452
CA 31.4164 -25.9255 47.0336
CA 10.2994 0.765773 57.1791
CA 22.7714 -25.1443 63.9977
CA 20.4678 2.91975 63.1459
CA 12.5617 -16.2643 60.9097
CA 11.0047 -16.2792 68.4474
CA 9.28327 -12.9359 81.1742
CA 4.39775 -23.0837 49.8901
CA 3.84924 -13.8224 70.1098
CA 2.52449 -19.5632 79.4489
CA -1.94686 -27.8924 48.6405
CA 10.137 -11.8078 83.118
CA 35.9701 -15.1298 58.6991
CA 21.9799 -15.9188 19.256
CA 23.5336 -29.1063 51.3537
CA 25.4841 -21.2967 62.9252
CA -0.755653 -12.7175 50.4419
CA -7.93933 -14.4706 37.0582
CA 5.63017 -17.7189 16.1085
CA 42.7255 -6.16608 42.0686
CA 30.6169 7.43515 33.3114
CA 17.3459 -9.88677 74.8354
CA -5.23387 -14.3607 34.3402
CA 14.6773 15.2543 52.4558
CA 30.8784 1.81959 31.1522
CA 24.7888 -21.3132 78.9356
CA 35.4932 4.04917 36.5256
CA 30.1439 -34.4498 39.7037
CA 32.7651 -30.7375 52.069
CA 33.1776 -17.514 53.9829
CA 27.8486 0.95509 56.0431
CA 2.22657 -14.2877 56.4684
CA 1.46009 -13.1798 51.0795
CA 6.70355 -11.1452 17.7546
CA -1.65632 -12.7011 61.0365
CA 4.81079 -32.5787 43.777
CA 5.55981 -13.8756 74.5793
CA 10.0393 -7.05564 38.6148
CA 19.5974 -6.65852 58.1514
CA 23.8334 -17.183 61.3486
CA 29.6036 -42.1646 38.9247
CA 13.5179 -4.85373 82.3359
CA 42.1409 11.2453 44.0988
CA 3.15579 -20.3188 58.3105
CA 13.7461 -7.83145 60.8092
CA -1.26705 -13.9075 52.7109
CA 22.8213 2.88273 64.3795
CA 20.8052 -18.6744 73.656
CA 25.7376 -16.9044 45.456
CA 18.6467 -16.2711 51.0013
CA 28.8398 -21.1205 30.6254
CA 2.62808 -22.4732 42.1781
CA 25.1384 -21.3613 30.1032
CA 29.9536 -28.6934 52.8903
CA 19.4275 8.40527 84.0699
CA 18.912 -5.18522 57.1502
CA 27.6322 12.3052 37.6065
CA 14.2232 -1.79407 41.9951
CA -7.33805 -19.0429 48.0118
CA 30.4711 11.3948 37.0011
CA 2.57598 -32.139 71.0515
CA 24.463 -23.2534 57.8501
CA 23.7986 -24.8807 74.662
CA 28.6406 -37.8659 50.4668
CA 32.716 -22.1393 73.9919
CA 25.0796 7.64526 37.2726
CA 44.5272 0.468724 45.1452
CA 6.81393 -20.849 63.2662
CA 15.1091 -29.7476 35.2106
CA 22.9864 13.8647 40.2481
CA 33.663 0.740034 55.0167
CA 30.4762 0.65593 55.8086
CA -0.851563 -7.76889 60.9699
CA 20.2785 -28.7377 33.0561
CA 27.4896 -26.6115 70.733
CA 47.029 2.70395 38.0854
CA -0.26318 -21.3366 50.0848
CA 43.2938 -19.6972 80.4881
CA -6.56138 -17.8746 49.6578
CA 15.8099 -20.3259 24.3717
CA 1.47466 -15.3234 78.0776
CA 1.38555 -22.2423 61.0951
CA 4.59972 -22.8551 77.2768
CA 15.4194 -23.2223 22.9528
CA 2.43055 -31.2134 48.7761
CA 10.3974 -13.8341 77.2746
CA 20.2346 -28.9081 57.2608
CA 28.819 -2.74447 56.423
CA 33.0201 -9.87831 52.7997
CA 36.3787 1.50309 34.4392
CA 0.212371 -27.78 49.4706
CA 19.8662 -21.4866 31.3985
CA 25.5779 -22.2713 59.13
CA 12.1078 -30.2246 58.7328
CA 24.0176 -17.8974 56.6435
CA 8.7067 -16.5661 25.2296
CA -9.30985 -7.31114 37.1908
CA 28.642 -25.1385 37.1876
CA 25.2622 -12.5224 59.0605
CA 21.0358 -28.9684 63.2394
CA 15.2882 6.42418 87.262
CA 2.03509 -1.60339 53.4484
CA 9.06677 -26.5056 20.3486
CA 24.7101 -14.9053 70.0449
CA 26.7518 6.03728 61.9887
CA 36.345 7.05057 46.3697
CA 30.3121 -6.25512 63.8779
CA 4.30903 -18.5335 67.4946
CA 13.2568 -9.69689 28.5482
CA 21.1886 -24.3132 64.4227
CA 27.3857 -15.2271 75.6511
CA 9.62716 -17.0764 72.3875
CA 31.7803 -18.8026 79.4086
CA 5.14412 -33.1888 52.3557
CA 0.589929 -23.3476 52.7985
CA 44.9903 2.44494 43.0083
CA 19.931 6.34536 58.6386
CA -2.08997 -9.68759 39.7215
CA 22.3213 -14.881 71.5393
CA 21.0564 2.712 56.8828
CA 40.6296 1.3379 39.6336
CA 13.1154 -20.1869 29.7714
CA 2.10265 -14.9338 44.1433
CA 7.67198 -31.5005 75.136
CA 25.6187 -23.0798 36.5022
CA 2.72827 -32.5232 67.7242
CA 25.8529 -23.9399 55.4785
CA 26.7459 -37.9524 50.545
CA 19.0846 21.5331 46.36
CA 29.5614 -1.7062 43.1353
CA 28.6447 -23.6219 59.1552
CA 37.8119 -9.97963 46.0047
CA 11.3954 -9.22877 34.3477
CA 13.2752 -1.81569 83.4145
CA 14.5633 0.653692 86.3992
CA 30.5 -25.5367 29.5864
CA 35.5694 -4.81834 49.4701
CA -2.539 -25.2485 61.3395
CA 32.8621 -16.9439 51.0564
CA 33.4593 7.33813 50.9857
CA 6.59718 -14.3783 60.5282
CA 16.8271 -17.6882 62.9623
CA 16.7441 0.506413 51.6476
CA 31.7513 -36.99 47.3526
CA 3.02273 -24.6898 62.6143
CA 16.58 -11.3606 63.58
CA 27.088 -2.44324 62.7403
CA 25.8601 -15.6632 38.7136
CA 1.89088 -23.7054 50.2632
CA 7.35404 -16.0803 58.5495
CA 6.9128 -19.1447 62.6067
CA 22.315 -8.93165 68.4858
CA 13.8192 -25.1903 39.6983
CA 26.6539 -35.3371 50.8544
CA 17.6339 -18.8877 58.9237
CA 26.2125 2.78594 53.2874
CA 27.3006 -22.6851 44.5428
CA 17.9933 -23.759 71.2679
CA 2.17698 -31.1091 63.4482
CA 3.4849 -14.5885 49.6525
CA 17.8883 -15.7013 48.8182
CA 16.8146 -9.13703 34.1998
CA 40.7908 -12.9068 45.6091
CA 15.7213 5.72248 54.0786
CA 23.2878 -23.567 54.4052
CA 36.3779 -13.4857 45.3379
CA 17.9983 -0.477021 63.5034
CA 30.0961 1.73472 46.6051
CA 6.0856 1.84514 55.8398
CA 16.463 -7.08022 71.6198
CA 22.558 -25.7709 46.2595
CA 35.1068 -2.35029 48.9833
CA 12.3297 -6.34703 43.8291
CA 39.7308 0.975795 31.1114
CA 10.0216 -22.2979 34.1022
CA 8.1695 -9.3489 30.4578
CA -0.36783 -14.4372 75.7502
CA 3.15958 -10.8094 29.7672
CA 32.7431 -15.3947 53.1179
CA -2.7564 -28.5354 50.2712
CA 15.5758 -2.05323 79.6011
CA 13.246 -28.61 60.2468
CA 23.3466 -39.3372 47.4296
CA -11.4314 -12.4402 37.1233
CA 1.67682 -4.98816 40.6982
CA -0.953986 -23.8429 47.1495
CA 24.5395 -22.7562 63.9563
CA 33.3801 3.38352 37.4554
CA 6.00362 -12.2289 59.3686
CA 7.28268 -12.6029 25.7356
CA 10.2431 -22.5795 75.98
CA 35.583 -9.4554 47.052
CA 8.36759 -13.5415 18.6357
CA 8.91231 -4.80394 58.6684
CA 25.3208 -10.86 56.3889
CA 36.0226 24.9831 49.6091
CA 23.4173 -23.3751 78.2605
CA 2.20657 -20.2258 52.1141
CA 20.3087 -26.9819 59.3024
CA 19.4821 -18.7933 75.3718
CA 25.8228 -25.1506 48.543
CA 19.7666 -24.088 34.1666
CA 18.3028 6.46694 85.4599
CA 33.1882 2.80564 32.5761
CA 15.9778 -18.9353 26.5948
CA 13.7201 -7.08639 74.6084
CA 3.42544 -13.0544 75.7779
CA 25.2248 11.4437 37.7917
CA 28.9219 1.20525 62.524
CA 9.26328 -17.8219 37.9343
CA 32.2615 9.52537 45.3928
CA 8.95762 -16.6652 20.2157
CA 16.5911 0.772574 40.3698
CA 16.1814 -7.45629 78.8781
CA 11.2943 -33.3344 37.3962
CA 29.9597 -21.6744 51.2077
CA 20.3759 13.713 34.2408
CA 41.4591 -10.3987 47.7414
CA 27.5978 10.5011 53.3248
CA 5.08678 -1.93032 53.2804
CA 12.9577 -9.07775 58.1875
CA 23.4299 -27.987 46.2498
CA 29.687 -29.0167 25.5266
CA -5.35291 -30.206 53.5391
CA 21.6781 -28.0264 46.9974
CA -0.691608 -9.5597 56.4018
CA 27.8232 22.5518 42.1332
CA 15.4975 -2.2757 45.5995
CA 16.7325 4.98834 63.2942
CA 30.9462 -36.1775 35.2673
CA 10.6966 -15.984 59.9046
CA 26.3278 4.31885 46.8104
CA 30.4828 -23.6801 76.1557
CA 17.357 0.82565 36.028
CA 33.5807 -38.5335 57.6141
CA 3.98189 -11.0453 54.5731
CA 28.3883 -32.7885 37.0004
CA 42.966 -7.54029 39.8432
CA 28.284 -22.0145 54.9319
CA 38.1625 -22.8968 73.1719
CA -0.494791 -9.04881 37.2108
CA 20.8442 -11.2999 33.9418
CA 20.3479 -20.2645 27.2859
CA 11.9065 -6.88421 11.6592
CA -3.71055 -17.0514 52.6582
CA 9.90906 -34.0893 61.5956
CA 23.1479 -14.8971 60.1156
CA 24.1954 7.64779 31.806
CA 21.0371 -30.5 56.1803
CA 29.241 -16.3046 53.629
CA 23.2244 -19.8065 74.4597
CA 47.6918 8.01048 44.4801
CA 13.8775 17.9157 52.0165
CA 13.5182 -25.2387 62.9502
CA 32.2579 -21.0234 46.6198
CA 48.8389 4.76576 37.9489
CA 1.04469 -22.8863 46.6165
CA 22.5621 -35.6901 52.1825
CA 19.8349 -14.7857 56.2192
CA 47.8391 -4.72099 36.7187
CA 29.7859 -34.2345 52.8854
CA 14.5499 -23.9215 60.1816
CA 19.641 25.3313 47.9662
CA 21.0018 -18.6433 33.669
CA 13.2019 -10.5442 16.879
CA 8.00608 -5.26302 36.8017
CA 33.6767 -11.5205 54.2812
CA 19.9638 17.6518 44.0939
CA 46.365 -4.9854 34.8972
CA 20.5497 -12.8761 62.028
CA 28.9335 -28.139 30.2097
CA 28.4835 -16.6942 49.6981
CA 25.4779 -23.4088 73.8621
CA 31.9002 4.28059 31.705
CA 13.6842 6.12696 92.4806
CA 20.2299 -10.0406 30.4736
CA 20.9784 11.7539 35.4948
CA 21.6619 -18.8009 60.079
CA 3.33031 -34.5273 62.3201
CA 21.8634 -17.1479 61.5342
CA 19.2111 -6.76559 37.2533
CA 22.7956 16.1942 44.5492
CA 23.5742 -21.0702 76.63
CA 18.93 -23.6319 74.4871
CA 35.7723 3.52033 27.4491
CA 15.8891 -7.11858 59.7643
CA 28.9208 -26.8851 34.4819
CA 12.5176 -21.4873 38.1033
CA 29.4008 -17.6226 58.0581
CA 0.845374 -36.479 68.2033
CA 44.8111 0.773196 41.7283
CA 17.297 -26.8101 58.238
CA 24.6529 -1.98559 44.9311
CA 25.2168 -1.96535 60.5544
CA 27.0054 -11.0543 63.7881
CA 17.5391 3.91738 89.8934
CA 19.032 -8.7503 69.3078
CA 19.9742 -4.46477 59.1046
CA 9.93865 -18.368 28.7625
CA 15.5559 -20.9 27.7259
CA 18.666 -25.6246 56.3811
CA 28.0259 -38.6979 41.0463
CA -6.40109 -30.1892 56.4782
CA -7.16459 -24.5164 50.9124
CA 33.1381 -41.986 58.8572
CA -0.332833 -29.2858 67.2538
CA 36.4839 -19.9759 77.3808
CA 16.6216 -14.5185 61.0491
CA 16.0083 18.6235 48.1448
CA 13.2857 -26.5702 20.962
CA 33.7548 -20.2138 45.7876
CA 21.2884 7.08024 32.223
CA 26.6184 -29.8296 63.9995
CA 26.8538 -38.1156 38.3372
CA -4.63328 -29.1813 50
CA 20.633 -2.62675 54.6345
CA 28.0113 -1.14141 58.6593
CA 34.1497 -38.0148 54.289
CA 25.9689 -34.5122 53.7066
CA 44.6493 -9.08887 45.1916
CA 16.3854 -3.09288 70.0407
CA 19.582 -7.59458 80.4697
CA 26.9176 4.30781 39.5292
CA 25.5803 -27.988 62.4622
CA 22.5811 -12.3026 72.6051
CA 31.308 10.1578 43.134
CA 8.78158 -32.451 58.3871
CA 12.9331 -6.02345 38.3954
CA 9.33977 -14.5599 79.001
CA 49.5839 -3.78988 45.5095
CA 31.2699 -8.93317 51.1479
CA 12.0616 -5.80289 84.9713
CA 22.9379 -13.3464 59.2177
CA 0.320303 -20.5222 43.6925
CA 41.7349 -2.62851 45.7126
CA 40.2577 2.92194 41.117
CA 42.1689 -20.5998 76.8813
CA 17.8264 -21.4957 73.3782
CA -8.4939 -20.9568 35.352
CA 5.66636 -11.8478 25.0833
CA 15.7031 -27.7273 40.4058
CA 27.7954 -13.2442 57.375
CA 24.4837 -14.4032 58.4022
CA 23.9015 13.734 44.6901
CA 11.787 -8.32721 54.9092
CA 34.9793 -23.598 76.6565
CA 12.978 1.71018 82.8836
CA 31.141 -24.79 51.8492
CA 3.918 -4.28801 41.6842
CA 17.0451 2.98604 52.3513
CA 10.6073 -25.5965 77.3095
CA 4.65091 -18.3246 76.9257
CA 20.6736 3.40271 61.0939
CA 32.2289 9.38254 53.8162
CA 21.855 -24.3416 49.1565
CA 28.9987 -19.3693 75.5163
CA 8.91809 -7.15152 8.00176
CA 18.2844 -10.2042 79.2922
CA 28.4306 -16.7939 60.2003
CA 21.42 -9.17242 70.7737
CA 2.42666 -24.6633 60.3636
CA 26.2825 13.4455 36.9752
CA 18.9091 1.97863 54.4805
CA 34.454 -21.6295 73.7866
CA 16.7295 -8.90675 44.6283
CA 10.4717 -15.3351 15.0982
CA 14.6854 -27.6564 37.4639
CA 5.40638 -36.8707 57.9614
CA 31.67 -4.80317 44.5623
CA 24.2419 -20.7083 60.5819
CA 29.6866 -27.054 28.2653
CA 31.8575 -20.9973 53.6
CA 39.3087 -0.0292093 41.5684
CA 33.7206 4.13636 31.4831
CA 11.4183 -9.78806 11.5971
CA 6.15526 -31.0263 81.4648
CA 29.2208 -17.64 55.8021
CA 5.96751 -5.32077 41.4463
CA 29.873 2.38004 51.3375
CA 28.5135 18.6849 43.0376
CA 27.8192 -14.7699 55.5888
CA -0.14086 -19.8279 53.2223
CA 23.934 -5.09188 58.2578
CA 32.8314 -32.3525 38.0646
CA 29.8534 -36.0563 44.7306
CA 16.7722 13.1946 38.2547
CA 3.60046 -19.1823 54.3644
CA 7.78249 -13.3134 58.4976
CA 13.3142 -2.53576 47.9097
CA 19.0073 -26.2489 32.4309
CA 29.7816 -6.17331 61.2524
CA 26.1754 -24.4298 31.0333
CA 0.756667 -31.516 67.3133
CA -0.778645 -11.539 35.7254
CA 47.459 -2.53717 35.0152
CA 20.0521 -17.919 57.5266
CA 28.5667 -19.9382 31.9578
CA 12.9928 -13.7906 16.6866
CA 31.1073 -23.0588 34.8546
CA 25.7777 -24.4943 62.4715
CA 18.5116 -19.1863 62.8012
CA 38.2993 3.23627 42.8608
CA 7.2967 -35.468 51.2067
CA 5.64684 -5.87622 43.3322
CA 12.7001 -1.34399 86.1693
CA 20.5413 -22.9052 58.2058
CA 18.9885 -15.8809 57.7535
CA 32.5061 8.8828 47.1651
CA 8.00473 -6.11641 40.5887
CA 21.4288 -19.9796 22.0844
CA 21.5735 -25.1475 62.0762
CA 24.377 -18.6042 51.8366
CA 10.6763 -18.3544 31.9139
CA 24.4316 -24.036 60.388
CA -7.63946 -12.0641 36.7497
CA 27.7822 14.8403 45.8783
CA 12.7028 -5.83032 58.5164
CA 27.7502 -14.0999 42.8966
CA 24.4051 -25.5686 62.0091
CA 29.6294 -16.4083 62.1766
CA 29.9108 -34.7765 50.295
CA 2.43754 -15.6068 28.9194
CA 3.76258 -5.33895 43.9403
CA 11.8674 -11.5039 30.6353
CA 26.2555 -14.297 59.8482
CA 19.8024 -15.301 73.9614
CA 31.4198 -38.9772 53.7123
CA 9.09723 -30.4434 51.0194
CA 20.5185 -29.0399 53.3132
CA 19.9995 1.63108 60.9039
CA 8.14279 -7.3083 60.9192
CA 1.66557 -11.9064 58.6388
CA 21.2491 -22.9788 25.1239
CA 13.2655 0.185168 60.4117
CA -7.3561 -16.0767 51.8061
CA 28.1426 9.39385 41.267
CA 19.4103 -10.5156 57.9944
CA 32.7149 -15.8607 57.1377
CA 31.7228 -34.2775 38.288
CA 30.5684 -19.5879 57.8225
CA 5.16964 -13.8879 49.29
CA 7.13656 -0.0596721 59.1688
CA 31.9502 0.577252 46.2168
CA 24.3369 -22.0214 53.7944
CA 47.2368 -1.72479 39.5721
CA 17.8503 0.895769 57.1786
CA 12.6627 -33.9611 58.3646
CA 0.437992 -22.1707 44.6197
CA -0.489755 -24.8066 66.6373
CA 23.045 -1.8766 55.0151
CA 9.1179 -16.6672 67.8454
CA 30.8998 -17.0722 52.8932
CA 21.5531 -27.2854 57.895
CA 28.9591 21.6393 45.3082
CA 30.2889 2.59872 61.5286
CA 6.48464 -31.9399 62.0023
CA 19.0946 -2.73777 69.0054
CA 33.2484 6.28679 40.9013
CA 23.0711 -9.16812 66.6296
CA 0.22389 -24.1895 45.637
CA 12.5323 -2.86865 46.2194
CA 42.9154 -1.91211 41.829
CA 31.5376 -1.53676 41.0853
CA 1.08532 -8.97691 53.5803
CA -4.06081 -12.445 33.1981
CA 37.196 -21.4352 76.4963
CA 12.9339 -16.2775 54.8178
CA 23.8895 -10.9818 73.5462
CA 15.8434 -0.742061 48.552
CA -5.25657 -17.7112 30.8734
CA 7.81108 -28.6154 77.9505
CA 7.75414 -15.519 18.1291
CA -5.23031 -28.4986 54.5289
CA 37.6811 9.9249 42.2164
CA 18.4645 17.5494 47.6705
CA 7.39656 -29.3627 45.6287
CA 16.8816 -13.9798 19.8128
CA 33.0863 22.2781 47.4405
CA 12.5807 -4.89317 86.9804
CA 40.686 2.81212 37.7515
CA 8.31156 -24.8352 19.0424
CA 41.0152 0.853454 42.2033
CA 28.6817 4.61508 40.6501
CA 32.2495 0.144893 34.5917
CA 24.9131 -13.8143 61.0161
CA 45.3203 -1.60701 44.6414
