489

CA 22.3229 -16.7942 56.1521
CA 12.7069 -29.6199 64.0028
CA 4.00928 -8.49292 42.8745
CA -4.88593 -17.0191 34.1942
CA 10.7632 -19.7011 69.334
CA 33.7058 -1.493 48.6726
CA 10.5701 -17.8738 70.4747
CA 28.0795 -34.1926 53.8341
CA 38.1766 -19.4521 75.0031
CA 3.13556 -22.1993 46.7645
CA 3.06375 -21.901 55.3844
CA 6.4943 -28.3998 79.2524
CA 10.707 -6.45902 75.9685
CA 36.6821 3.27076 46.0527
CA 31.0658 -21.862 59.4754
CA 38.5426 -19.504 48.554
CA 21.9799 -15.9188 19.256
CA 24.8425 12.4832 42.9835
CA 7.83488 -16.8812 72.1638
CA 16.2036 -9.18708 83.1628
CA 29.3048 -27.9028 74.1062
CA 34.9261 7.13388 54.0592
CA 5.47317 -8.78518 76.3125
CA 37.1244 -0.43548 42.2633
CA 24.1334 12.2844 48.4008
CA -5.23387 -14.3607 34.3402
CA 6.93509 -24.4874 40.9454
CA 27.314 -21.1694 60.8926
CA 8.16228 -15.7882 78.9533
CA 14.615 -2.96244 84.0547
CA 30.1439 -34.4498 39.7037
CA 9.16388 -15.3317 54.4614
CA 11.3566 -26.2665 43.4559
CA 33.8951 -37.6359 61.5493
CA 30.3642 0.78177 30.0387
CA 29.4505 6.42365 40.9306
CA 1.51593 -25.6589 65.535
CA 34.386 -9.33863 41.2921
CA 4.81079 -32.5787 43.777
CA 32.2333 -34.2559 54.0971
CA 9.86379 -15.9528 76.2941
CA 19.5974 -6.65852 58.1514
CA 28.9357 -0.588524 37.1458
CA 16.2002 -18.2784 31.5972
CA 12.2657 0.847687 81.6494
CA 31.1981 -20.0943 62.3721
CA 40.4392 -20.3512 46.7302
CA 10.3775 -13.1314 24.4674
CA 37.5642 0.959421 38.9427
CA 23.7353 12.936 35.035
CA 20.8052 -18.6744 73.656
CA 25.7376 -16.9044 45.456
CA 20.8108 -20.8761 42.5684
CA 27.2049 -24.228 56.3267
CA 5.94153 -3.39576 46.1055
CA 44.0221 -16.1283 49.521
CA 5.76381 -14.0031 79.9704
CA 14.4113 -12.5847 57.7204
CA 9.24485 -25.2979 81.5822
CA 13.7745 -15.4615 52.1894
CA 32.8153 -27.7466 48.3274
CA 26.1958 -31.7742 38.7988
CA 32.9942 -0.886756 53.8492
CA 3.02602 -19.3812 49.3681
CA 20.877 -2.10676 36.3252
CA 34.0169 -3.47735 45.351
CA 20.8353 9.02687 47.2276
CA 32.716 -22.1393 73.9919
CA 29.1052 -0.578594 43.0402
CA 36.7193 -9.29077 41.5067
CA 24.0049 -13.72 70.2758
CA 20.3167 -1.72434 40.3124
CA -4.38051 -9.46012 36.4243
CA 31.1337 9.36262 33.764
CA 19.2288 3.9473 56.9472
CA -0.851563 -7.76889 60.9699
CA 20.2785 -28.7377 33.0561
CA 24.5176 -30.6747 60.1882
CA 47.029 2.70395 38.0854
CA 30.5193 -26.9696 64.446
CA 6.15233 -26.5094 64.2916
CA 8.97262 -7.53207 72.6458
CA -9.3443 -25.7379 46.7725
CA 41.3268 -19.1668 79.8522
CA 4.21199 -15.3494 78.1467
CA 4.59972 -22.8551 77.2768
CA 24.6608 -19.8466 55.3021
CA 10.3052 -4.65873 49.4477
CA 0.928088 -21.1471 39.862
CA 26.0351 -6.0828 45.6733
CA 31.6915 -25.9409 48.9006
CA 9.40555 -31.7297 63.825
CA 36.3787 1.50309 34.4392
CA 17.1024 -23.9056 64.4188
CA 2.74562 -23.4012 38.9271
CA 22.257 11.4278 35.5353
CA 0.496994 -38.4736 48.1649
CA 24.0176 -17.8974 56.6435
CA 41.7914 -19.1384 81.6866
CA 10.2366 -32.6114 75.7958
CA 2.37636 -4.1911 45.1013
CA -0.854447 -18.1686 48.8309
CA 25.271 -9.67937 73.7299
CA -8.00686 -25.4161 52.3527
CA 26.1145 -29.4888 75.6085
CA 21.3195 14.9227 45.2761
CA 31.5139 5.42574 38.2772
CA 29.4455 -24.7913 60.3792
CA 25.4045 -24.0662 61.0431
CA 25.0519 -19.7116 32.259
CA 4.30903 -18.5335 67.4946
CA 28.4678 -10.851 51.4937
CA 22.2853 -10.3956 70.8222
CA 20.9042 17.3174 47.878
CA 38.7697 4.46732 44.0581
CA 31.6969 -2.85377 58.9071
CA 5.14412 -33.1888 52.3557
CA 3.27002 -6.03428 53.6476
CA 23.63 -22.0823 32.0068
CA 22.7071 -3.70857 40.1093
CA -1.53493 -30.6291 64.6223
CA 6.81451 -9.96727 71.8118
CA 21.0564 2.712 56.8828
CA 23.435 -5.48758 70.463
CA 24.411 6.7101 34.1207
CA 26.0635 -19.2169 53.9489
CA 7.67198 -31.5005 75.136
CA 7.62978 -18.7859 15.4636
CA -9.97101 -20.1169 32.9721
CA 9.5033 -4.46889 42.367
CA 17.7515 -5.03641 43.5638
CA 21.6622 -13.7499 59.4882
CA 29.9039 -17.6729 30.908
CA 28.001 -24.5781 80.1704
CA 16.9796 -6.80884 76.4821
CA 18.0941 -26.0432 63.8234
CA 0.985783 -15.007 48.6097
CA 14.5633 0.653692 86.3992
CA 25.7369 8.34345 31.0101
CA 7.92981 -3.7444 73.5614
CA 19.1542 -15.832 25.7152
CA -8.4463 -16.6726 34.3213
CA 4.05169 -21.0596 49.0516
CA 24.0934 -19.7 29.742
CA 16.3818 -10.5178 61.3618
CA 47.7168 -0.958646 42.2501
CA -0.578075 -29.301 46.7794
CA 43.0504 -10.5597 46.9811
CA 21.3636 -13.5884 72.6447
CA 40.3022 -19.0345 83.1943
CA 28.9254 -20.2754 59.6277
CA -8.08437 -25.565 31.6635
CA 12.2887 -5.07708 79.5242
CA 2.22033 -24.2402 41.0942
CA 31.9882 -19.8205 50.98
CA 4.32901 -27.5928 54.2849
CA -13.4936 -18.3642 29.9814
CA 19.1835 13.8748 50.6922
CA 26.6677 -25.6762 33.0317
CA 34.7735 -3.93325 50.8506
CA 6.67061 -2.13266 39.7893
CA 17.9487 -11.6119 74.8192
CA 33.7097 -1.51421 35.3886
CA 23.5648 4.45584 65.9849
CA 14.8982 -17.4151 64.4633
CA 16.4535 23.3037 49.6022
CA 31.1216 -6.56119 48.7202
CA -5.5169 -24.5625 54.5561
CA 9.3717 -1.42177 72.6612
CA 12.7155 -12.9608 51.4396
CA 33.9339 -0.730149 39.9529
CA 17.2948 1.67596 90.3573
CA 6.88041 -9.16694 11.2037
CA 20.3907 -14.4798 20.1598
CA 2.93026 -39.6367 54.3088
CA 11.4105 -19.9577 33.1618
CA 25.3925 -21.3325 73.2829
CA 21.3407 -21.6026 25.0417
CA 15.9268 -10.6612 84.5779
CA 25.938 -20.9712 64.2671
CA 7.47228 -3.91544 44.09
CA 6.50091 -24.3302 56.3802
CA 14.1808 5.75103 90.481
CA 23.3521 3.60363 40.2016
CA 18.8536 -12.1524 59.6317
CA 7.40873 -15.2839 80.8976
CA 23.2133 -28.4315 30.2338
CA 30.8787 3.97668 49.9596
CA 4.85963 -2.40147 67.8384
CA 19.947 -26.6568 62.557
CA 30.2486 -27.3349 57.9848
CA 35.0915 6.27101 48.8223
CA -6.60218 -22.5747 53.2291
CA 17.4994 -29.1063 35.1493
CA 2.0365 -30.2485 41.7445
CA 7.56734 -29.5952 57.7616
CA 8.91231 -4.80394 58.6684
CA 20.1481 -28.1668 60.8696
CA 35.9884 -37.783 62.3342
CA 8.54982 -9.71601 74.3749
CA 28.7972 -6.00387 35.4323
CA 19.477 4.22691 63.73
CA 19.6337 14.2368 48.6939
CA 13.9938 -24.4469 64.648
CA -6.58878 -19.9816 53.2632
CA -0.789139 -32.9683 68.3664
CA 32.3466 5.93053 58.8863
CA 1.35001 -32.806 62.3259
CA 4.08695 -11.2162 20.3229
CA 7.93166 -3.7432 41.8496
CA -1.2121 -14.1464 55.8505
CA 8.08751 -25.6682 16.0633
CA 19.959 -14.4882 59.2823
CA 18.5568 -18.52 30.0684
CA 15.1401 -0.0790785 41.7613
CA 2.7962 -7.36427 62.1131
CA 33.7285 -29.0765 50.3614
CA 42.9128 -2.19344 44.4141
CA 38.2566 13.5197 38.4552
CA 1.46397 -11.7061 23.2074
CA 21.7702 -28.777 37.955
CA 12.1304 -11.0492 12.814
CA 5.08678 -1.93032 53.2804
CA 42.7552 -13.5329 55.254
CA 28.3109 0.694775 53.1992
CA 20.8912 5.13769 58.392
CA 25.6506 1.92179 54.8298
CA 4.39368 -15.3208 30.0615
CA -0.691608 -9.5597 56.4018
CA 25.7736 -27.3389 35.7728
CA 18.2936 -23.7463 73.7474
CA 2.30273 -5.69766 43.7205
CA 1.39835 -18.8174 60.9724
CA 12.6312 -0.565234 49.7784
CA 2.96731 -20.6235 61.4729
CA 30.4828 -23.6801 76.1557
CA 20.3543 -1.30582 43.33
CA 3.76549 -20.8042 67.5971
CA 6.57758 -27.7347 56.2878
CA 22.0174 -29.0428 66.0443
CA 13.4368 -28.0762 23.0556
CA 19.407 -13.8341 15.7864
CA 38.1625 -22.8968 73.1719
CA -6.28935 -25.8588 51.1035
CA 46.1027 12.1577 39.2547
CA 3.65745 -32.7437 63.854
CA 28.2889 -15.4585 53.0719
CA 16.5652 -4.13041 76.2062
CA 21.5634 -22.576 76.06
CA 23.1669 -18.5992 44.9502
CA 33.4782 -31.0111 50.1357
CA 27.2946 -20.7553 29.2794
CA 33.405 -6.67328 45.0489
CA 18.6268 13.1015 37.544
CA 13.0892 -19.1579 33.583
CA 33.9272 -35.2781 49.5105
CA 13.9568 -3.79834 86.516
CA 35.2223 -7.63331 48.178
CA 15.7004 -21.0827 64.9396
CA 26.5963 -15.9976 65.4925
CA 43.0623 -16.9312 82.1459
CA 47.9173 12.3862 40.2373
CA 28.6972 -23.7966 75.7793
CA 29.7859 -34.2345 52.8854
CA 29.183 6.14174 33.4023
CA 28.0252 -17.8039 59.6981
CA 46.4674 6.6414 39.3623
CA 38.5572 9.75991 38.9433
CA 10.8084 -15.2088 33.9888
CA 0.0972579 -26.1323 68.0555
CA 11.2989 -6.03991 80.9706
CA 3.18984 -12.0115 45.6957
CA 19.4121 -28.0481 64.1717
CA 31.1107 -2.28101 48.3447
CA 19.1794 0.687946 67.4023
CA 10.0744 -16.1487 57.6199
CA 11.5679 -31.294 65.6881
CA 13.6842 6.12696 92.4806
CA 31.4693 -32.7574 52.6222
CA 30.9963 -16.657 64.779
CA -1.21751 -9.95093 58.5213
CA 3.96455 -28.3376 64.2973
CA 5.727 -27.9848 74.5277
CA 34.6042 -41.3613 57.5105
CA 24.551 14.5185 44.3186
CA 0.626279 -8.41274 38.7433
CA 31.2693 -1.05627 40.6183
CA 27.0502 -29.5461 61.4647
CA 15.8891 -7.11858 59.7643
CA 27.9497 -27.3045 51.748
CA 25.6257 -10.506 65.6009
CA 29.4008 -17.6226 58.0581
CA 0.845374 -36.479 68.2033
CA 4.32244 -21.3432 80.0549
CA 36.7738 -32.6364 46.7819
CA 24.6529 -1.98559 44.9311
CA 5.18789 -26.2283 39.9648
CA 26.7715 -25.7814 64.577
CA 17.5391 3.91738 89.8934
CA 19.032 -8.7503 69.3078
CA 10.6313 -35.4839 75.2297
CA 0.235542 -21.024 62.4053
CA 2.69282 -8.31325 35.0555
CA 31.1738 -17.5647 45.2626
CA 5.02427 -9.9544 8.69837
CA 7.83318 -12.0878 33.388
CA 32.653 0.151585 34.8995
CA 27.1649 -23.4743 77.3448
CA 9.24583 -7.06588 77.8778
CA 24.6474 -26.443 51.7486
CA 29.5191 -28.7084 55.7774
CA 8.33968 -8.81665 47.668
CA 13.2857 -26.5702 20.962
CA 23.5778 -2.86208 42.9623
CA 41.0331 -10.2901 45.8333
CA 8.48899 -16.6925 51.194
CA 21.0041 -20.8297 70.6497
CA -4.63328 -29.1813 50
CA 20.5105 -16.5836 30.0528
CA 41.2991 -20.3699 49.3164
CA 34.1497 -38.0148 54.289
CA 24.1964 4.16557 44.2403
CA 15.3524 -2.42425 43.1315
CA 7.14916 -18.48 71.4946
CA 24.4468 0.0570789 60.222
CA 10.9516 -6.96668 78.5486
CA 11.4442 -2.4929 55.9619
CA 21.341 10.1963 42.1747
CA 41.5758 -8.56921 49.2493
CA 29.0545 -0.340108 56.1453
CA 38.1211 -11.1403 46.0574
CA 6.4089 -5.76032 39.2278
CA 7.9057 -25.5788 87.3535
CA 37.2687 1.40074 43.984
CA 23.3203 -21.0103 45.0127
CA 22.6681 -19.5333 54.8896
CA 28.6979 2.26307 41.3822
CA 41.7349 -2.62851 45.7126
CA 8.76405 0.989455 72.4543
CA 42.1689 -20.5998 76.8813
CA 3.16761 -8.60927 52.179
CA 4.73337 -7.17082 38.8556
CA 7.57539 -25.2148 44.9713
CA 27.564 5.72193 47.2966
CA 27.7954 -13.2442 57.375
CA 3.73014 -16.743 80.9733
CA 31.8073 -21.8363 55.7492
CA 2.30824 -13.4385 27.7098
CA -0.329457 -38.1783 62.5966
CA 9.78306 -31.2757 56.1763
CA 29.1103 -29.8123 74.2312
CA 20.052 -16.8029 17.287
CA 17.0451 2.98604 52.3513
CA 24.2146 9.5186 30.4083
CA 32.677 0.0507884 43.8646
CA 5.97208 -22.6863 57.8128
CA 32.2289 9.38254 53.8162
CA 29.7101 1.01266 51.6664
CA 27.0482 -24.2944 62.6022
CA 8.91809 -7.15152 8.00176
CA 18.2844 -10.2042 79.2922
CA 39.8802 -9.51035 51.371
CA 32.6658 -20.5477 49.3213
CA 11.3116 -0.0343483 84.3266
CA 7.30337 -6.78316 77.4974
CA -9.42276 -22.2682 52.0028
CA 4.62512 -30.6987 54.6384
CA 14.0975 0.317401 48.9067
CA 10.4717 -15.3351 15.0982
CA 33.1382 -2.53906 29.5166
CA 20.4622 11.2304 40.0301
CA 3.23035 -21.3098 75.7281
CA 28.6139 -25.3309 73.4258
CA 24.713 -28.3532 48.5865
CA 5.87353 -12.3135 78.7643
CA 24.7091 2.29865 59.3227
CA 26.7218 -31.5118 29.5508
CA 11.4183 -9.78806 11.5971
CA 27.3299 -2.71074 38.2616
CA 21.1897 -32.1611 59.7539
CA 5.96751 -5.32077 41.4463
CA 8.95083 0.940234 48.0105
CA 28.5135 18.6849 43.0376
CA -0.460518 -11.8251 52.7811
CA 23.5859 -21.0443 57.7172
CA -7.01562 -16.9454 32.32
CA 4.88742 -14.0641 19.268
CA 29.8534 -36.0563 44.7306
CA 37.031 3.30471 37.0111
CA 3.5124 -19.9834 53.694
CA 11.3225 -2.40539 81.0262
CA 34.3355 -5.22213 47.2666
CA 24.5261 -19.1769 46.1463
CA 23.0751 -27.0924 60.4801
CA 26.1754 -24.4298 31.0333
CA 27.9528 5.81597 38.616
CA 19.8884 -12.7803 31.3019
CA 5.21993 -28.007 77.7747
CA 5.46125 -19.8203 19.4411
CA 14.4812 -4.30499 42.9598
CA 6.74271 -13.5125 36.3865
CA 9.71735 -27.3266 41.3562
CA -9.51049 -28.3655 42.9167
CA 31.73 -16.3314 61.9961
CA 22.9007 -32.0502 38.2577
CA 5.2369 1.50142 57.898
CA 44.3355 -0.354839 46.2306
CA 42.4994 -17.7197 48.8753
CA 20.2001 -11.6112 27.006
CA 8.7642 -31.4837 53.3372
CA 23.6712 -10.2181 72.4198
CA 8.00473 -6.11641 40.5887
CA 21.4288 -19.9796 22.0844
CA 21.5735 -25.1475 62.0762
CA 24.377 -18.6042 51.8366
CA 23.3793 -30.3225 61.7391
CA -2.26189 -9.7421 63.9391
CA 18.368 -10.2496 72.3149
CA 27.7822 14.8403 45.8783
CA 14.4902 -20.9597 35.292
CA 40.3917 -6.60672 46.3719
CA 24.4051 -25.5686 62.0091
CA 22.4206 -16.9577 16.0125
CA 29.9108 -34.7765 50.295
CA 26.363 0.0474077 46.3374
CA 32.2794 -2.79883 45.9012
CA 26.5613 -12.3594 54.2213
CA 3.50336 -15.4584 47.2261
CA 1.20831 -13.7577 43.6694
CA 23.3635 -18.7671 61.4083
CA 42.3186 13.8684 38.9862
CA 20.5185 -29.0399 53.3132
CA 29.6033 -11.8578 52.9425
CA 30.9348 -25.2466 73.1633
CA 27.6544 -13.5409 55.5172
CA -0.177071 -11.132 65.7443
CA 1.03522 -20.7722 46.06
CA 36.2721 0.520259 37.7256
CA 7.44136 -23.7276 43.5755
CA 12.1946 -21.8747 36.0046
CA 15.1235 -3.48016 47.0754
CA 41.0835 -15.0271 53.0716
CA 30.5684 -19.5879 57.8225
CA 10.5439 -15.1128 51.7292
CA 9.72701 -15.7955 28.2316
CA 16.7739 -5.03705 74.4592
CA 24.7585 7.39224 41.3734
CA 47.2368 -1.72479 39.5721
CA -9.11877 -22.9409 50.3071
CA 19.0455 -22.7451 36.7014
CA 29.0393 7.14626 37.598
CA -0.489755 -24.8066 66.6373
CA 15.6456 -17.1216 73.0081
CA 9.1179 -16.6672 67.8454
CA 25.8045 7.76368 43.7291
CA -9.46876 -21.9842 33.8068
CA 28.9591 21.6393 45.3082
CA 11.3269 -11.0289 35.2067
CA 14.2444 -20.4324 32.8773
CA 2.1344 -38.5797 51.2705
CA -1.69272 -3.99349 62.0732
CA -1.14895 -17.8247 51.8373
CA 11.0458 -13.8432 72.6301
CA 10.1474 -9.79365 81.0214
CA 6.85359 -3.66793 71.7235
CA 25.6948 -19.1918 62.6759
CA 1.08532 -8.97691 53.5803
CA 43.1489 -9.94031 50.0834
CA 28.4759 -27.1198 59.2906
CA 3.04575 -29.748 54.6487
CA 3.43411 -34.2491 52.3003
CA 12.9654 0.807628 53.948
CA 0.701897 -5.26282 37.7152
CA 1.83623 -6.97041 67.8294
CA 43.3478 -12.4754 45.4224
CA 32.6387 -5.27192 43.6145
CA 33.2058 -25.8645 47.4491
CA 18.4645 17.5494 47.6705
CA 47.1338 -1.24462 44.4874
CA 8.91142 -11.201 82.4243
CA 33.0863 22.2781 47.4405
CA -0.414444 -21.7527 53.0363
CA 24.3093 4.85441 32.1107
CA 8.31156 -24.8352 19.0424
CA -2.575 -7.63021 59.7762
CA 27.3204 -20.7551 80.4769
CA 48.4373 0.467498 36.482
CA 8.47868 -26.1783 85.6071
CA 28.1022 -29.214 63.1208
