489

CA 34.0397 -21.5271 58.5648
CA 12.7069 -29.6199 64.0028
CA 16.7367 -13.3283 26.3472
CA 31.0205 -18.4693 45.7439
CA 10.7632 -19.7011 69.334
CA 42.0099 5.87278 41.0589
CA 22.8433 -22.206 60.3202
CA 39.1969 -18.5307 78.2863
CA -1.88802 -19.2141 38.3187
CA 18.9851 -25.5515 69.901
CA 25.6397 5.81874 32.6008
CA 6.4943 -28.3998 79.2524
CA 9.93512 -4.98244 43.8977
CA -12.3966 -16.9346 34.9219
CA 14.2869 -18.4056 20.8234
CA 27.2576 -33.0163 40.0157
CA 6.19372 -25.3587 61.2924
CA 24.8425 12.4832 42.9835
CA 34.4985 -5.72403 51.6976
CA 18.5016 -26.507 77.902
CA 26.2663 -11.9592 68.6674
CA -4.8661 -24.5689 51.4422
CA 11.8177 -34.831 65.5182
CA 9.23976 -31.9683 60.6885
CA 20.3402 4.80636 38.5549
CA -1.53625 -30.5366 45.6758
CA 1.14975 -4.23542 39.4021
CA 31.6082 21.7752 45.089
CA 5.23604 -27.4511 88.8457
CA 14.615 -2.96244 84.0547
CA 30.1439 -34.4498 39.7037
CA 34.2898 -23.2673 60.9477
CA 27.3164 -21.6501 57.323
CA -1.42325 -13.4246 60.4392
CA 20.482 15.2275 34.3218
CA 36.5492 1.73467 40.8209
CA 29.6183 -17.0213 42.5429
CA 36.333 -12.9543 51.7863
CA 34.5225 4.18848 51.3715
CA 11.2579 -6.12798 52.4106
CA 9.86379 -15.9528 76.2941
CA 5.94437 -14.7028 76.5192
CA 22.6365 -25.6672 80.3325
CA 17.4467 -1.78993 69.8019
CA 12.2657 0.847687 81.6494
CA 4.07201 -1.38654 42.2867
CA 10.904 -12.5066 82.5288
CA 13.9721 -19.7933 18.0685
CA 6.92788 -21.3608 51.6567
CA 23.7353 12.936 35.035
CA 23.3126 19.0483 43.441
CA 1.94238 -14.6489 20.667
CA 2.78813 -17.3743 63.9124
CA 35.6937 6.32596 37.7194
CA 21.4659 20.6647 46.8563
CA 28.1482 0.124195 51.0385
CA 46.3797 -4.44469 38.6271
CA 40.2024 -21.8529 76.0233
CA 9.24485 -25.2979 81.5822
CA 14.2462 -22.8939 72.9552
CA 31.3198 -23.7704 45.7847
CA 0.969551 -5.48868 9.93014
CA 1.70494 -28.7168 49.2929
CA 37.145 -2.65709 40.2286
CA 27.8264 7.21254 28.4678
CA 14.3382 -20.0822 30.7963
CA 8.85311 0.418886 56.9649
CA 32.716 -22.1393 73.9919
CA 26.6158 -26.2336 62.1415
CA 25.3977 -32.9657 38.0973
CA 6.5462 -14.2875 59.4051
CA 3.24942 -14.5265 60.7483
CA -4.38051 -9.46012 36.4243
CA 29.4231 -20.6188 43.0459
CA 25.3567 5.09628 59.8392
CA 11.423 -28.1852 61.7034
CA 20.6818 -14.2963 33.2454
CA 11.6027 5.02129 44.9614
CA 47.029 2.70395 38.0854
CA 24.6792 -25.3884 63.5746
CA 1.33041 -21.4035 44.6299
CA 14.8784 -24.8374 64.4283
CA 26.3687 -21.8908 41.197
CA 16.5156 -25.4873 64.9995
CA 17.2241 -23.193 73.3243
CA 4.59972 -22.8551 77.2768
CA 13.6593 -33.06 69.1369
CA 21.913 -33.9748 38.8247
CA 26.2775 -12.325 36.5991
CA 24.3393 17.3949 41.7116
CA 3.17065 -22.089 46.3296
CA 29.1858 3.03434 62.1442
CA 1.50786 -31.1318 55.3764
CA 23.6942 -12.6079 31.7932
CA 12.9279 -15.3956 70.8056
CA 35.8747 -21.7096 47.4466
CA 0.496994 -38.4736 48.1649
CA 33.8991 0.246037 49.4305
CA 4.41616 -3.36782 68.258
CA 10.2366 -32.6114 75.7958
CA 39.6901 -4.90347 48.3842
CA 18.6477 -27.2272 73.4948
CA 9.98093 -19.6206 19.8509
CA 29.5025 -32.3572 53.7138
CA -5.53923 -21.785 65.7169
CA 21.2958 -26.0548 29.5604
CA 22.2038 -24.8244 68.788
CA 29.1261 -31.7375 44.6457
CA 1.46349 -33.0218 50.8791
CA 1.72095 -6.74398 58.0798
CA 23.556 -13.905 72.9039
CA 17.7391 -27.151 76.2691
CA 10.4939 -15.9703 48.1378
CA 10.1416 -9.55107 78.2817
CA 29.7402 5.16977 53.7451
CA 10.9085 -25.1273 51.5842
CA -10.1651 -19.9669 34.3634
CA 26.7951 -14.2156 25.3274
CA 5.54463 -11.6476 15.4947
CA 22.0384 -24.6869 72.5681
CA 18.3506 -23.224 67.6882
CA 6.81451 -9.96727 71.8118
CA 26.3094 -26.7296 55.7318
CA 19.6141 -23.6193 69.3861
CA 13.069 -15.0466 22.3673
CA 6.77919 -17.5648 50.7315
CA 7.67198 -31.5005 75.136
CA 7.62978 -18.7859 15.4636
CA 30.8244 -15.1924 58.8457
CA 12.5703 -30.5223 57.9055
CA 25.4546 9.25769 41.8237
CA 30.802 -34.1044 55.7435
CA 23.9702 -19.9862 64.0656
CA 37.6988 -21.4138 49.2138
CA 36.7074 8.07774 35.451
CA 7.43322 -9.42732 74.4318
CA 18.9276 -0.600607 47.763
CA 45.915 13.6506 42.7683
CA 18.9251 10.6736 50.0765
CA 23.7687 9.20119 32.2874
CA 21.9123 -32.0028 61.895
CA 31.2194 -18.2708 54.4163
CA 4.05169 -21.0596 49.0516
CA 24.0934 -19.7 29.742
CA 16.3818 -10.5178 61.3618
CA 16.748 0.804253 52.8656
CA -0.578075 -29.301 46.7794
CA 23.9704 -16.7711 52.7182
CA 29.5281 -0.382555 48.9774
CA 12.6072 4.62517 46.9008
CA 28.5165 -23.8553 55.6629
CA 25.4985 -30.5305 62.5732
CA 17.0266 -7.4832 30.4241
CA 16.8531 -26.0756 32.9763
CA 14.1812 -16.7189 23.1207
CA 19.9567 -23.0548 57.7914
CA 22.5217 15.2759 41.316
CA 19.1835 13.8748 50.6922
CA 4.11976 -15.2615 54.777
CA 31.8954 -36.7777 63.9435
CA 23.527 -16.7873 48.0766
CA 15.0328 -32.2167 44.0519
CA 17.3173 -14.2631 41.4074
CA 30.1791 19.6885 46.2589
CA 33.1139 -19.5691 45.5306
CA 16.4535 23.3037 49.6022
CA 31.1216 -6.56119 48.7202
CA 21.393 -37.0958 38.9737
CA 9.33924 -24.4385 17.3579
CA 7.52788 -21.275 65.7905
CA 33.9339 -0.730149 39.9529
CA 32.7202 -28.6269 49.6113
CA 19.7439 10.1904 37.1313
CA 33.6377 -3.53479 43.4515
CA 11.2334 -16.1449 24.0273
CA 19.7542 -20.2878 56.8214
CA 19.3902 2.15226 43.6752
CA 7.9003 -9.32311 13.4293
CA 21.4444 16.6682 43.4111
CA 25.938 -20.9712 64.2671
CA 33.5046 1.55435 37.2413
CA 0.466809 -25.8949 67.6802
CA 42.3542 0.85865 44.2123
CA 38.0513 2.07408 49.7811
CA 21.7908 3.89299 36.0666
CA 45.3568 -11.1895 53.6321
CA -0.403131 -9.65928 13.0931
CA 30.8787 3.97668 49.9596
CA -0.473977 -2.12752 61.0016
CA 28.6798 -1.46094 61.1564
CA 27.072 -2.92955 41.8194
CA 35.0915 6.27101 48.8223
CA -6.60218 -22.5747 53.2291
CA 3.55251 -8.47462 8.99855
CA 24.2823 -14.4084 35.5431
CA 25.1727 -17.588 47.7161
CA 19.4218 1.71706 63.7099
CA -9.01416 -28.8677 48.4785
CA 31.3255 -19.1039 57.3603
CA 7.2839 -1.65703 52.069
CA 21.4813 -30.8624 36.7007
CA 23.9135 -33.8706 61.6271
CA 19.6337 14.2368 48.6939
CA 16.798 -24.7578 75.0124
CA 3.8177 -5.36824 42.0629
CA 21.3814 1.59674 41.7137
CA -4.37998 -4.1616 56.5649
CA 10.2236 -5.29721 79.9245
CA 21.2819 17.8718 41.3216
CA 7.93166 -3.7432 41.8496
CA 41.24 2.56033 41.5628
CA 10.3576 -18.8024 28.5111
CA 19.959 -14.4882 59.2823
CA 26.8991 -29.4722 61.5356
CA 6.45274 -1.68212 67.2207
CA 26.4349 -12.8832 70.8457
CA 24.5285 -17.5519 45.637
CA 31.653 -33.1687 39.2087
CA 18.5654 -34.3274 42.5952
CA 1.46397 -11.7061 23.2074
CA 21.7702 -28.777 37.955
CA -4.34938 -18.848 58.808
CA 33.9114 8.18934 46.725
CA 25.0268 0.163531 63.569
CA 17.4361 -20.8429 64.3395
CA 44.862 -1.06887 36.8008
CA 25.6506 1.92179 54.8298
CA 4.39368 -15.3208 30.0615
CA 20.6393 15.6852 53.5496
CA 24.1338 -23.1365 52.5829
CA 25.9535 -31.9926 57.3055
CA 36.8954 -22.8063 58.0145
CA 8.26318 -25.0419 51.879
CA 35.6402 -31.703 51.6582
CA 2.96731 -20.6235 61.4729
CA 17.7206 -19.048 52.5909
CA 18.9244 16.4295 48.7129
CA 3.62155 -22.8509 43.9344
CA -0.446809 -17.3724 41.2677
CA 42.9273 -7.67135 54.5337
CA 44.363 -14.0843 48.476
CA 24.3059 -27.6919 62.0478
CA 38.1362 -11.905 48.0296
CA -6.28935 -25.8588 51.1035
CA -7.82755 -8.3508 54.5664
CA 38.9634 -24.6804 50.7301
CA 17.6161 -26.8144 29.6046
CA 29.4859 1.04514 46.3425
CA 21.5634 -22.576 76.06
CA 19.2773 -34.9955 37.6961
CA 22.722 -14.9306 34.7444
CA 18.9834 -18.0434 48.6783
CA 33.405 -6.67328 45.0489
CA 18.6268 13.1015 37.544
CA 13.0892 -19.1579 33.583
CA 29.1868 -24.8967 46.134
CA 13.9568 -3.79834 86.516
CA -2.13696 -20.1067 51.8862
CA 10.645 -18.3193 34.8581
CA 21.2033 -32.2414 57.4829
CA 43.0623 -16.9312 82.1459
CA 16.7403 -20.8552 31.8008
CA 31.5649 -17.3593 57.8252
CA 23.5984 -20.7985 51.9784
CA 22.3757 -11.7243 70.0892
CA 30.993 -13.936 55.9146
CA 46.4674 6.6414 39.3623
CA -6.40911 -5.51623 57.8692
CA 10.8084 -15.2088 33.9888
CA 15.1716 -1.29715 52.9097
CA 31.747 -24.5336 51.0618
CA 25.3271 -24.1424 48.6175
CA 20.3016 -7.96378 71.4193
CA -4.74563 -28.0734 47.784
CA 19.1794 0.687946 67.4023
CA 10.0744 -16.1487 57.6199
CA 3.01627 -24.657 54.251
CA 19.1662 15.1532 36.9082
CA 31.7402 6.33344 38.2153
CA 19.6692 -21.8118 64.6568
CA 6.38905 -5.8488 51.3872
CA 28.798 -25.8383 60.7491
CA 14.6204 -20.2611 73.6647
CA 20.841 10.7802 47.8252
CA 17.6664 -11.0477 62.5484
CA 0.626279 -8.41274 38.7433
CA 18.2724 1.19155 37.4017
CA 7.07292 -24.1841 59.6104
CA 11.2358 2.46774 46.1038
CA 21.1281 -16.3594 39.2791
CA 23.2977 -34.5865 59.9324
CA 12.9672 -10.4034 81.0554
CA 32.6285 -23.099 58.2648
CA 4.32244 -21.3432 80.0549
CA 12.7849 4.72523 56.0339
CA 44.2898 11.9088 38.9348
CA 5.18789 -26.2283 39.9648
CA 27.6263 -5.56248 43.615
CA 25.9967 8.49727 30.8067
CA 19.032 -8.7503 69.3078
CA 20.1638 -17.4247 47.1313
CA 0.235542 -21.024 62.4053
CA 7.28357 -17.5867 18.9974
CA 30.7108 -6.77892 53.5273
CA 19.4449 -8.50339 30.799
CA 21.0737 -16.0463 55.079
CA 7.75886 -11.1942 18.4656
CA 24.7356 -12.5557 72.1683
CA 3.25396 -7.12086 11.2947
CA 24.6474 -26.443 51.7486
CA 29.5716 -4.68259 44.5435
CA 8.33968 -8.81665 47.668
CA 13.8427 1.08588 88.8237
CA 34.4562 -15.5888 54.7476
CA 41.0331 -10.2901 45.8333
CA 8.48899 -16.6925 51.194
CA 26.8266 -28.4547 64.5096
CA 18.7139 -13.7821 29.8232
CA 34.9236 -1.09285 50.4389
CA 16.583 -28.8253 69.5672
CA 12.1708 -27.0056 80.9493
CA 24.1964 4.16557 44.2403
CA 1.35858 -15.6506 44.0476
CA 24.3881 -26.1003 60.8123
CA 25.5486 -5.04538 41.1194
CA 6.83155 -12.6192 17.0612
CA 40.9586 -5.0888 51.8186
CA 0.719343 -12.8622 60.1065
CA 42.3447 5.96521 44.6317
CA 9.44951 -5.35072 70.3664
CA 4.61838 -0.50152 49.818
CA 12.3754 -2.70391 84.043
CA 7.9057 -25.5788 87.3535
CA 6.57809 -27.1958 58.6231
CA 20.5815 -23.634 28.6054
CA 25.6472 -11.1598 71.36
CA 4.88605 -2.72271 47.692
CA 26.5423 -29.466 73.2842
CA 10.2791 -19.4988 30.6209
CA -6.17429 -7.31252 34.3103
CA 33.042 -15.1329 47.5988
CA 12.2316 -13.9745 49.089
CA 35.0044 -23.6509 59.2834
CA 33.171 -38.9764 60.9693
CA 0.449636 -36.3436 54.6206
CA 3.73014 -16.743 80.9733
CA 31.8073 -21.8363 55.7492
CA 2.30824 -13.4385 27.7098
CA 33.3305 -24.9728 60.0706
CA 28.5319 -3.4585 47.0681
CA 26.6149 -5.79249 35.34
CA 7.3614 -9.9011 83.0893
CA 32.5114 -38.0144 58.4153
CA 17.512 2.27627 43.7692
CA 20.4995 8.23699 52.6055
CA 5.97208 -22.6863 57.8128
CA 25.7577 -18.1394 25.8519
CA -10.9433 -20.7622 37.7718
CA 27.0482 -24.2944 62.6022
CA 12.5096 -37.9191 68.2107
CA 37.997 -7.07499 47.7465
CA 39.8802 -9.51035 51.371
CA 38.5294 -19.0719 57.9167
CA -7.83602 -27.082 54.3963
CA 21.4795 -26.727 59.97
CA 13.8449 -11.8227 63.1397
CA 24.1585 3.95066 62.1418
CA 1.88097 -28.392 54.0588
CA 10.4717 -15.3351 15.0982
CA 5.04199 -21.3899 42.8796
CA 22.8526 -16.1326 46.2126
CA -2.09611 -20.3704 59.4606
CA 28.6139 -25.3309 73.4258
CA 22.263 -24.272 60.262
CA 5.43169 -18.4934 43.9459
CA 23.504 -28.6837 76.8615
CA 29.1737 -19.427 47.74
CA 23.5036 -23.0894 50.5282
CA 10.5326 -13.2505 48.2724
CA 6.17115 -24.8244 52.7954
CA 5.96751 -5.32077 41.4463
CA 8.95083 0.940234 48.0105
CA 28.5135 18.6849 43.0376
CA 21.0969 14.4229 42.3096
CA 23.5859 -21.0443 57.7172
CA 22.6967 -24.2491 77.391
CA 4.88742 -14.0641 19.268
CA -5.06804 -21.3597 62.0008
CA 28.8042 -31.9763 49.3064
CA 3.5124 -19.9834 53.694
CA 15.5138 -12.1578 58.2009
CA 44.4623 -8.82488 50.8694
CA 21.1188 3.32993 40.5642
CA -0.178225 -8.17445 56.8618
CA 24.2298 -26.8744 29.6653
CA -4.67121 -17.5662 38.9203
CA 28.5011 -18.3323 55.8611
CA 24.9476 -6.54116 32.7501
CA 24.6997 -15.5831 37.0423
CA 45.9633 13.7043 40.0179
CA 21.7136 -29.8797 64.4508
CA 9.71735 -27.3266 41.3562
CA 30.3831 -20.7307 49.5611
CA 37.9703 -19.9454 55.0989
CA 20.1345 -6.08287 71.815
CA 37.3662 -20.7381 56.8178
CA 1.44477 -16.0101 49.6635
CA 42.4994 -17.7197 48.8753
CA 20.2001 -11.6112 27.006
CA 13.2383 -23.644 37.577
CA 4.27693 -23.3505 54.3853
CA 4.57537 -20.1724 59.1904
CA 17.9109 17.4055 44.1658
CA 21.5735 -25.1475 62.0762
CA 22.175 2.57926 33.4295
CA 23.3793 -30.3225 61.7391
CA 13.1213 -18.2301 72.0601
CA 31.3699 -38.164 61.0709
CA 6.45498 0.16257 46.2195
CA 14.4902 -20.9597 35.292
CA 40.3917 -6.60672 46.3719
CA 28.4913 -21.0315 54.4684
CA 18.6242 -4.6313 32.9693
CA -11.5625 -4.9123 58.0616
CA 26.363 0.0474077 46.3374
CA 23.5596 5.39248 55.4531
CA -8.02069 -4.20313 59.578
CA 9.86309 -13.7784 83.809
CA 17.9984 -15.4694 22.1518
CA 9.6797 -17.6915 73.9347
CA 20.223 -16.6392 44.6022
CA 36.6514 -16.1626 49.0842
CA 27.4849 -5.85473 32.5413
CA 40.4661 7.76412 33.8096
CA 16.0755 -19.6827 49.7278
CA 26.1949 3.68185 50.9936
CA -0.502243 -0.0974218 40.4395
CA -9.61166 -27.1047 50.837
CA 7.44136 -23.7276 43.5755
CA 12.1946 -21.8747 36.0046
CA 22.6568 -10.9661 64.2493
CA 4.28955 -34.2592 60.7759
CA 3.49355 -12.9423 8.88698
CA 10.5439 -15.1128 51.7292
CA 6.94961 -11.5604 84.1299
CA 16.7739 -5.03705 74.4592
CA -7.25956 -1.9572 55.2356
CA 27.2211 -35.7415 35.2285
CA 11.3241 -14.2478 53.2229
CA 22.8408 -33.2854 58.2418
CA 22.6305 -24.6567 34.0496
CA 31.9152 1.43313 48.7777
CA 21.8223 -24.8554 27.9469
CA 9.56464 -15.4901 17.0473
CA 25.8045 7.76368 43.7291
CA 17.437 -22.2111 76.5984
CA 28.9591 21.6393 45.3082
CA 6.37663 -4.79627 66.3583
CA 10.5322 -14.1742 70.396
CA 2.1344 -38.5797 51.2705
CA 27.7408 -4.01723 32.314
CA -1.14895 -17.8247 51.8373
CA 26.1726 -9.17298 34.6395
CA -3.04044 -23.8702 66.2683
CA 3.20085 -26.6252 75.6064
CA 25.6948 -19.1918 62.6759
CA 19.3018 -24.8608 65.5306
CA 36.9461 -24.2519 72.8657
CA -1.92685 -9.78087 38.2089
CA 5.27042 -26.2689 75.7611
CA 3.43411 -34.2491 52.3003
CA 12.9654 0.807628 53.948
CA 20.9885 -6.76686 34.6724
CA 19.9371 -26.1611 63.2953
CA 44.2549 -4.73485 43.6322
CA -8.92694 -25.1988 47.4692
CA -11.6973 -28.2633 41.0443
CA -11.2223 -27.455 43.3636
CA 24.2355 -15.4139 57.6183
CA 13.3045 -14.924 81.0851
CA 14.3233 6.93425 46.9838
CA -0.279899 -6.37537 58.7808
CA 30.3865 -26.0124 54.5609
CA 8.31156 -24.8352 19.0424
CA -9.6201 -25.8249 36.6696
CA 10.7647 -5.47034 67.2479
CA 32.5029 0.30978 46.4229
CA 8.47868 -26.1783 85.6071
CA 21.3951 -25.6912 31.8932
