489

CA 34.0397 -21.5271 58.5648
CA 19.6761 0.54735 43.3465
CA 16.7367 -13.3283 26.3472
CA 31.0205 -18.4693 45.7439
CA 10.7632 -19.7011 69.334
CA 11.198 -16.1508 77.5356
CA 43.6242 3.73885 41.3083
CA 39.1969 -18.5307 78.2863
CA 33.9457 4.96666 35.4791
CA 18.9851 -25.5515 69.901
CA 25.6397 5.81874 32.6008
CA 37.4994 9.08093 49.1882
CA 9.93512 -4.98244 43.8977
CA 24.6919 -24.8446 43.6262
CA 35.5349 3.07118 52.5995
CA 5.18048 -9.23555 27.5578
CA 6.19372 -25.3587 61.2924
CA 24.8425 12.4832 42.9835
CA 11.1667 -12.3836 49.7873
CA 12.3601 -7.77139 81.8368
CA 26.2663 -11.9592 68.6674
CA 0.106343 -23.8134 50.2727
CA 27.1468 -35.7987 37.1391
CA 0.669301 -9.82099 60.1702
CA 20.3402 4.80636 38.5549
CA -1.53625 -30.5366 45.6758
CA 46.9722 2.66148 45.7949
CA 23.101 -8.857 29.1469
CA 5.23604 -27.4511 88.8457
CA 16.7217 -5.94205 76.237
CA 30.1439 -34.4498 39.7037
CA 3.06881 -14.4221 29.4366
CA 27.3164 -21.6501 57.323
CA -1.42325 -13.4246 60.4392
CA 21.5456 -36.072 50.0855
CA 36.5492 1.73467 40.8209
CA 11.1788 -22.9745 71.5964
CA 36.333 -12.9543 51.7863
CA 14.2704 -32.0948 78.4256
CA 12.9654 1.31058 51.7483
CA 39.0989 -1.98421 43.9464
CA 5.94437 -14.7028 76.5192
CA 8.79172 -20.527 27.9124
CA 33.6353 -8.85115 51.993
CA 16.3079 -23.9656 75.3779
CA 4.07201 -1.38654 42.2867
CA 10.904 -12.5066 82.5288
CA 25.6078 -28.2897 71.5117
CA 18.4803 -12.0947 61.1281
CA 13.3412 -26.6475 60.1632
CA 24.4208 -19.7537 60.7503
CA 5.43827 -23.0202 79.4926
CA 2.78813 -17.3743 63.9124
CA 35.6937 6.32596 37.7194
CA 17.4143 -25.6304 78.6215
CA 28.1482 0.124195 51.0385
CA 25.8228 -16.8951 38.5403
CA 40.2024 -21.8529 76.0233
CA 4.96731 -8.02359 15.6138
CA 14.2462 -22.8939 72.9552
CA 10.7452 -25.1227 79.2949
CA 33.6402 -32.6884 57.2732
CA 34.0988 -19.0178 74.1466
CA 37.145 -2.65709 40.2286
CA 2.19989 -28.4482 57.3022
CA 6.00072 -20.031 80.9037
CA 6.94544 -27.1015 57.1053
CA 32.716 -22.1393 73.9919
CA 26.6158 -26.2336 62.1415
CA 25.3977 -32.9657 38.0973
CA 6.5462 -14.2875 59.4051
CA 3.24942 -14.5265 60.7483
CA -4.38051 -9.46012 36.4243
CA 3.60262 -23.3964 56.2362
CA 25.3567 5.09628 59.8392
CA 43.4274 -22.6893 78.4736
CA -3.22297 -19.3869 58.9614
CA 4.10149 -20.2861 50.4449
CA 13.9984 -22.2369 64.4601
CA 34.025 -16.0978 57.6455
CA 26.4166 -24.1378 45.4894
CA 17.7735 -12.2571 52.7735
CA 5.79202 -16.8705 11.9971
CA 16.5156 -25.4873 64.9995
CA 12.6598 -1.91081 53.5325
CA 4.59972 -22.8551 77.2768
CA 12.3638 -20.6245 65.4474
CA 21.913 -33.9748 38.8247
CA 26.2775 -12.325 36.5991
CA 4.93508 -28.5783 62.0571
CA 3.14076 -16.0003 51.9709
CA 29.1858 3.03434 62.1442
CA 1.50786 -31.1318 55.3764
CA 16.6856 -4.72097 50.2513
CA 28.5312 -18.0804 39.4436
CA 35.8747 -21.7096 47.4466
CA 0.496994 -38.4736 48.1649
CA 0.142881 -9.51332 6.4988
CA 4.41616 -3.36782 68.258
CA 10.2366 -32.6114 75.7958
CA 17.2435 -7.71025 73.3867
CA 18.6477 -27.2272 73.4948
CA 9.98093 -19.6206 19.8509
CA 18.4643 -21.6232 59.7891
CA 16.8749 -27.3431 31.6857
CA -4.70782 -25.9328 44.234
CA 38.3194 8.48701 43.8436
CA 29.1261 -31.7375 44.6457
CA 1.46349 -33.0218 50.8791
CA 1.72095 -6.74398 58.0798
CA 16.2242 -23.6736 68.2768
CA 31.4386 -10.3219 52.6333
CA 10.4939 -15.9703 48.1378
CA 11.6782 -15.4189 21.0786
CA 36.2262 -17.982 59.2344
CA 17.8921 -19.4398 59.3941
CA 6.23807 -15.7406 15.2044
CA 2.83568 -6.94953 56.4606
CA 5.54463 -11.6476 15.4947
CA 25.7443 -13.7029 37.7203
CA 20.5574 -24.2564 56.3318
CA 6.81451 -9.96727 71.8118
CA 2.5228 -22.783 76.9695
CA 6.68426 0.62329 40.8401
CA 23.8929 -27.6835 36.9937
CA 8.80863 -14.0153 74.1055
CA 7.67198 -31.5005 75.136
CA -1.06361 -7.19388 36.2552
CA 4.85923 -25.8303 59.2244
CA 27.4726 -5.35329 47.6
CA 41.9783 -5.13388 34.1669
CA 18.9593 10.2161 36.9835
CA 42.6304 10.3232 45.0768
CA 37.6988 -21.4138 49.2138
CA 7.24907 -1.52625 44.051
CA 23.3166 1.06338 34.0218
CA 18.9276 -0.600607 47.763
CA 31.3624 -21.0851 76.2703
CA 18.9251 10.6736 50.0765
CA 24.2424 -26.2652 59.2611
CA -2.99806 -38.0715 47.322
CA 31.2194 -18.2708 54.4163
CA 23.9782 -14.3122 48.4546
CA 41.3008 7.80792 44.0351
CA 16.2924 -12.8436 51.0054
CA 14.7446 -2.89552 56.8215
CA 7.88478 -21.5162 83.4184
CA 23.9704 -16.7711 52.7182
CA 32.5691 4.59402 53.3488
CA 12.6072 4.62517 46.9008
CA 28.5165 -23.8553 55.6629
CA 25.4985 -30.5305 62.5732
CA 2.71267 -9.69707 83.4391
CA 11.3958 -16.9211 45.0854
CA 14.1812 -16.7189 23.1207
CA 14.5616 0.839713 47.345
CA 23.9581 -26.044 65.1497
CA 4.44727 -5.57929 6.75339
CA 4.11976 -15.2615 54.777
CA 31.8954 -36.7777 63.9435
CA 23.527 -16.7873 48.0766
CA 5.48047 -22.2934 41.5975
CA 17.3173 -14.2631 41.4074
CA 25.6398 -2.50262 36.8504
CA 33.1139 -19.5691 45.5306
CA 5.69395 -23.0154 48.3741
CA 31.1216 -6.56119 48.7202
CA 21.393 -37.0958 38.9737
CA 9.33924 -24.4385 17.3579
CA 7.52788 -21.275 65.7905
CA 32.854 -27.1546 58.5793
CA 23.7548 -30.3058 75.0413
CA 3.18089 -18.6322 51.3752
CA 33.6377 -3.53479 43.4515
CA 34.682 -2.54609 48.3493
CA 26.0342 -19.1689 36.986
CA 15.5494 -10.7209 75.0796
CA 7.9003 -9.32311 13.4293
CA 21.4444 16.6682 43.4111
CA 7.64392 -21.1893 47.8994
CA -8.90405 -21.7203 37.8737
CA 30.2433 -15.4469 58.2826
CA 13.1552 -22.366 66.091
CA 38.0513 2.07408 49.7811
CA 17.6981 -11.3908 50.3621
CA 31.2452 -10.5759 49.9491
CA -0.403131 -9.65928 13.0931
CA 22.042 -37.8547 36.8524
CA -2.28625 -19.9834 49.8636
CA 36.7045 12.1295 31.5218
CA 43.6088 4.36562 35.7512
CA 35.0915 6.27101 48.8223
CA -6.60218 -22.5747 53.2291
CA 29.3569 -14.9203 44.6289
CA 24.2823 -14.4084 35.5431
CA 5.03524 -9.29913 74.2949
CA 24.019 7.49466 39.2526
CA -9.01416 -28.8677 48.4785
CA 31.3255 -19.1039 57.3603
CA 30.9821 2.29803 36.8573
CA 12.6061 -26.1055 50.6476
CA 4.12428 -14.1168 52.1795
CA 19.6337 14.2368 48.6939
CA 19.9072 -10.6364 70.2775
CA 3.8177 -5.36824 42.0629
CA 21.3814 1.59674 41.7137
CA -4.37998 -4.1616 56.5649
CA -11.9558 -31.4857 45.2791
CA 32.8603 -19.8657 47.4826
CA 16.1179 -30.9128 47.5837
CA 41.24 2.56033 41.5628
CA 10.3576 -18.8024 28.5111
CA 6.23853 -1.62335 48.616
CA 1.19245 -27.372 90.6863
CA 13.8919 -12.8973 49.4543
CA 34.6514 -19.5764 62.5902
CA 24.5285 -17.5519 45.637
CA 31.653 -33.1687 39.2087
CA 42.3696 2.67658 32.2691
CA 1.46397 -11.7061 23.2074
CA -13.6344 -30.4456 44.9948
CA 18.7514 -36.3751 36.6852
CA 14.3963 -12.4216 52.6958
CA 25.0268 0.163531 63.569
CA 22.1146 -18.2939 39.6496
CA 42.9576 7.32935 47.3855
CA 19.0252 -24.4764 64.1193
CA 44.5764 2.97149 36.7344
CA 20.6393 15.6852 53.5496
CA 3.60071 -16.0686 44.0893
CA -0.596836 -32.4895 47.8385
CA 10.5131 -28.8863 57.1138
CA 8.26318 -25.0419 51.879
CA 14.3915 -14.1968 50.7039
CA 25.5357 -15.9549 33.9673
CA 13.6021 -16.1945 18.1967
CA 45.2812 4.04228 38.5686
CA 17.7347 -6.2263 70.4473
CA -0.446809 -17.3724 41.2677
CA 42.9273 -7.67135 54.5337
CA 44.363 -14.0843 48.476
CA 17.5487 -25.3089 27.2811
CA 24.4239 -35.0177 36.5663
CA 41.0367 -18.7829 76.8702
CA 4.55411 -16.6068 15.9317
CA 42.9905 5.99641 34.58
CA 19.3902 18.601 44.2757
CA 29.4859 1.04514 46.3425
CA 21.5634 -22.576 76.06
CA 33.6196 2.43822 40.5682
CA 22.722 -14.9306 34.7444
CA 18.9834 -18.0434 48.6783
CA 3.36029 -22.9435 74.7807
CA 31.0115 -33.9731 34.7533
CA 20.27 -22.3857 32.5882
CA 12.3797 15.9694 42.9408
CA 9.72058 -13.4281 54.8246
CA -2.13696 -20.1067 51.8862
CA 10.645 -18.3193 34.8581
CA 44.4408 -6.78364 53.8908
CA -1.89527 -3.75832 5.6895
CA 15.155 14.0303 45.0907
CA 18.3597 -1.10069 64.1833
CA 4.3797 -13.1744 21.8535
CA 9.19951 -14.189 60.9279
CA 30.993 -13.936 55.9146
CA 46.4674 6.6414 39.3623
CA 22.7228 -9.88977 39.5672
CA 10.8084 -15.2088 33.9888
CA 15.1716 -1.29715 52.9097
CA 29.3434 -7.50861 36.3421
CA 8.49303 -22.6235 48.9282
CA 38.1302 6.19111 34.3055
CA 27.0224 -33.9031 60.7898
CA 18.3097 -33.1112 44.2869
CA -1.40472 -38.184 46.3324
CA 22.2518 -27.5919 72.6383
CA 16.7141 -13.8026 47.2409
CA 31.7402 6.33344 38.2153
CA 31.6088 15.2719 42.4219
CA -12.7544 -25.1437 40.0207
CA 28.798 -25.8383 60.7491
CA 14.6204 -20.2611 73.6647
CA 23.3253 -14.8569 46.8566
CA 7.42308 -3.81062 45.3157
CA 21.6521 -13.1583 34.1174
CA 31.1637 12.4415 39.7429
CA 7.07292 -24.1841 59.6104
CA 11.2358 2.46774 46.1038
CA 29.9296 -7.85224 47.7309
CA -0.923447 -22.1117 66.7867
CA 5.22963 -25.9073 55.9531
CA 32.6285 -23.099 58.2648
CA 4.32244 -21.3432 80.0549
CA 12.7978 -27.5189 78.7869
CA 44.2898 11.9088 38.9348
CA -10.3832 -30.7532 41.5913
CA 27.6263 -5.56248 43.615
CA 25.9967 8.49727 30.8067
CA 14.5947 -20.6676 37.7293
CA 13.5959 -29.684 43.173
CA 0.235542 -21.024 62.4053
CA 7.28357 -17.5867 18.9974
CA 30.7108 -6.77892 53.5273
CA 27.8926 2.57492 46.1307
CA 23.6785 -17.3085 56.5122
CA 26.3951 -7.02829 30.5345
CA 21.3442 2.99861 51.7706
CA 3.25396 -7.12086 11.2947
CA 20.1621 -20.4165 29.0047
CA 19.7134 3.53514 36.7711
CA -2.11145 -17.8174 60.6838
CA 26.3867 -24.1986 42.8396
CA -0.211052 -12.8162 26.0468
CA 26.4749 10.847 43.9122
CA 19.4524 1.73548 50.0132
CA 39.1024 5.42119 46.5775
CA 18.7139 -13.7821 29.8232
CA 31.507 -26.5432 55.8497
CA 16.583 -28.8253 69.5672
CA 26.6279 -13.4602 39.6456
CA 25.4179 -9.62131 64.9672
CA 1.35858 -15.6506 44.0476
CA 27.6335 -32.3846 36.9751
CA 24.6952 -28.7471 63.5526
CA 39.2587 11.0963 33.5077
CA 40.9586 -5.0888 51.8186
CA 13.2269 -19.6839 34.333
CA 42.3447 5.96521 44.6317
CA 19.5391 14.4641 52.6462
CA 17.9199 -23.0738 32.2317
CA 12.3754 -2.70391 84.043
CA 7.9057 -25.5788 87.3535
CA 14.1576 2.93845 49.0739
CA 20.5815 -23.634 28.6054
CA 25.6472 -11.1598 71.36
CA 16.3476 -9.6007 64.6929
CA 26.5423 -29.466 73.2842
CA 10.2791 -19.4988 30.6209
CA -6.17429 -7.31252 34.3103
CA 33.042 -15.1329 47.5988
CA 35.2482 2.15146 42.1662
CA 28.5146 -16.8565 54.884
CA 21.9051 -11.7765 57.204
CA 30.154 -23.6503 42.4038
CA 3.73014 -16.743 80.9733
CA 31.8073 -21.8363 55.7492
CA 2.30824 -13.4385 27.7098
CA 33.3305 -24.9728 60.0706
CA 28.5319 -3.4585 47.0681
CA 39.9092 -21.992 49.5411
CA 18.6958 -31.3597 37.4891
CA 32.5114 -38.0144 58.4153
CA 17.512 2.27627 43.7692
CA 20.4995 8.23699 52.6055
CA 20.1821 -17.8962 46.3896
CA 42.4517 -2.13165 36.4242
CA -10.9433 -20.7622 37.7718
CA 7.54881 -5.1831 37.6919
CA 23.8377 -30.3285 58.3297
CA 29.1678 0.89397 37.4967
CA 2.11814 -15.1989 59.2272
CA 20.3389 -26.8808 71.2319
CA -8.53894 -30.0116 45.3563
CA 21.4795 -26.727 59.97
CA 7.43927 -6.66318 67.2147
CA 3.6628 -25.3786 47.8481
CA 1.88097 -28.392 54.0588
CA 6.5983 -14.7057 13.1208
CA 20.5526 0.908255 45.7128
CA 15.1303 -25.694 75.6932
CA 7.71487 -14.2304 87.7548
CA 28.6139 -25.3309 73.4258
CA 3.95477 -16.3263 56.4642
CA 5.43169 -18.4934 43.9459
CA 6.64161 -23.2136 37.2047
CA 22.3276 0.782232 64.1963
CA 7.31523 -19.0021 46.4141
CA 10.5326 -13.2505 48.2724
CA 2.06857 -10.359 18.4003
CA -3.5115 -12.6046 33.0579
CA 33.7502 -0.611226 38.2773
CA 27.646 13.3799 42.2345
CA 21.0969 14.4229 42.3096
CA 12.8358 -15.2783 52.0546
CA 34.1741 -27.7272 57.4259
CA 4.88742 -14.0641 19.268
CA 6.13726 -17.9411 13.6496
CA 28.8042 -31.9763 49.3064
CA 3.5124 -19.9834 53.694
CA 19.8125 20.2118 42.2153
CA 44.4623 -8.82488 50.8694
CA 19.4692 -0.929324 45.7193
CA 15.0047 -14.0906 39.504
CA 24.2298 -26.8744 29.6653
CA 23.7922 -17.0391 34.2889
CA 1.71189 -13.8206 39.7882
CA 24.9476 -6.54116 32.7501
CA 10.8083 -23.8086 57.8359
CA 29.4993 12.1247 46.562
CA 18.126 -6.61693 34.5351
CA 9.71735 -27.3266 41.3562
CA 15.2096 -9.56302 62.167
CA 29.8336 -27.018 51.7631
CA 24.4171 -7.40272 29.8842
CA 10.4153 -16.7936 31.6027
CA 1.44477 -16.0101 49.6635
CA 42.4994 -17.7197 48.8753
CA 20.2001 -11.6112 27.006
CA 13.2383 -23.644 37.577
CA 25.5927 20.4925 42.7983
CA 4.57537 -20.1724 59.1904
CA 17.9109 17.4055 44.1658
CA 21.5735 -25.1475 62.0762
CA 22.175 2.57926 33.4295
CA 6.48514 -4.73418 43.6936
CA 13.1213 -18.2301 72.0601
CA 10.119 -1.71236 51.6844
CA 10.5464 18.2786 42.2534
CA 14.4902 -20.9597 35.292
CA 40.3917 -6.60672 46.3719
CA 28.4913 -21.0315 54.4684
CA 21.7861 -13.2948 67.8848
CA 3.01164 -18.7482 15.5505
CA 47.7853 3.01921 41.5522
CA 23.5596 5.39248 55.4531
CA 5.17755 -19.8336 19.3065
CA 9.86309 -13.7784 83.809
CA 30.6477 -24.0992 45.3946
CA 9.6797 -17.6915 73.9347
CA 20.223 -16.6392 44.6022
CA 25.3114 -9.51822 38.7011
CA 27.4849 -5.85473 32.5413
CA 13.2019 -15.6066 75.5347
CA 26.5874 -25.2204 57.4596
CA 24.6683 -12.6816 34.0574
CA 21.2556 -12.0975 65.152
CA -9.61166 -27.1047 50.837
CA -2.55241 -14.5404 39.768
CA 26.1842 -37.9707 38.765
CA 27.4834 1.9404 30.7045
CA 24.0159 11.8404 44.6148
CA -0.0352847 -11.2846 37.3666
CA 27.9196 2.63137 43.4554
CA 6.94961 -11.5604 84.1299
CA 16.7739 -5.03705 74.4592
CA 23.5633 -37.2224 39.8557
CA 27.2211 -35.7415 35.2285
CA 34.2614 -25.0157 75.9402
CA 44.4633 3.48711 45.4967
CA 30.5231 -33.829 49.8986
CA 19.3754 -22.7087 74.897
CA 21.8223 -24.8554 27.9469
CA 13.8858 -17.8355 29.3713
CA 13.8364 -15.7405 47.8016
CA 17.437 -22.2111 76.5984
CA 21.6147 -33.333 47.087
CA 28.3019 -26.1665 28.1706
CA 43.8591 -16.193 46.4204
CA 2.1344 -38.5797 51.2705
CA 27.7408 -4.01723 32.314
CA -1.14895 -17.8247 51.8373
CA 28.3821 10.0397 41.3609
CA -0.156366 -15.8258 51.333
CA 21.5549 -28.2535 36.8222
CA 25.6948 -19.1918 62.6759
CA 1.46455 -6.14652 7.13234
CA 36.9461 -24.2519 72.8657
CA 35.435 -5.14002 44.6958
CA 5.27042 -26.2689 75.7611
CA 2.01266 -25.1186 82.4657
CA 23.2951 -31.2478 68.8253
CA 28.0202 1.8447 41.085
CA 11.529 -23.3255 82.3313
CA 44.2549 -4.73485 43.6322
CA 8.90373 -22.5111 57.8017
CA -11.6973 -28.2633 41.0443
CA 34.0701 -16.7384 55.6421
CA 24.2355 -15.4139 57.6183
CA 13.3045 -14.924 81.0851
CA 13.6213 -23.6938 40.3358
CA -0.279899 -6.37537 58.7808
CA 31.2301 -20.7232 58.7768
CA 10.0587 -27.1093 81.2372
CA 16.1479 -14.8742 43.8822
CA 10.7647 -5.47034 67.2479
CA 38.4277 -3.10921 45.5822
CA 8.47868 -26.1783 85.6071
CA 21.3951 -25.6912 31.8932
