489

CA 10.0911 -3.15631 53.2124
CA 20.2836 -13.2059 30.6811
CA 16.7367 -13.3283 26.3472
CA 31.0205 -18.4693 45.7439
CA 10.7632 -19.7011 69.334
CA 19.1601 -35.2519 44.5387
CA 25.8715 -36.2143 38.1439
CA 8.41014 -10.3355 68.6841
CA 33.9457 4.96666 35.4791
CA 29.8026 4.85369 48.3076
CA 25.6397 5.81874 32.6008
CA 20.4678 -25.2715 77.7379
CA 9.93512 -4.98244 43.8977
CA 24.6919 -24.8446 43.6262
CA 15.91 -14.9664 45.967
CA 27.14 10.5716 40.1222
CA 24.7146 -7.73679 35.9521
CA 24.8425 12.4832 42.9835
CA 21.054 -19.0518 65.259
CA 2.3048 -19.6704 59.2685
CA 32.2036 0.200944 37.5061
CA 5.65989 -4.97464 15.5879
CA 18.5353 -20.4169 64.4042
CA 0.669301 -9.82099 60.1702
CA 20.3402 4.80636 38.5549
CA 25.2008 -10.708 38.1428
CA 46.9722 2.66148 45.7949
CA 29.4877 -14.9002 41.2009
CA 5.23604 -27.4511 88.8457
CA 16.7217 -5.94205 76.237
CA 30.1439 -34.4498 39.7037
CA 25.2805 -17.2079 50.6429
CA -10.8396 -27.5287 43.677
CA -1.42325 -13.4246 60.4392
CA -1.25069 -19.2928 42.1747
CA 41.5406 -8.42249 47.0811
CA 3.95403 -17.1591 60.2233
CA 36.333 -12.9543 51.7863
CA 6.76859 -21.5658 45.8079
CA 12.9654 1.31058 51.7483
CA 11.2062 -23.2457 56.0091
CA 5.94437 -14.7028 76.5192
CA 28.9084 -17.0211 47.1161
CA 24.9764 -3.8992 44.2577
CA 16.3079 -23.9656 75.3779
CA 24.4621 -19.3215 37.6342
CA 5.15086 -15.9293 89.0786
CA 25.6078 -28.2897 71.5117
CA 0.352653 -34.8339 49.433
CA 17.1725 -4.70886 34.5641
CA 0.091807 -17.188 76.8671
CA 9.21365 -18.6908 63.1478
CA 2.78813 -17.3743 63.9124
CA 38.8363 -21.0063 75.204
CA 43.3351 -0.81436 45.1068
CA 28.1482 0.124195 51.0385
CA 25.8228 -16.8951 38.5403
CA 40.2024 -21.8529 76.0233
CA 4.96731 -8.02359 15.6138
CA 34.4584 7.12642 40.4078
CA 10.7452 -25.1227 79.2949
CA 33.6402 -32.6884 57.2732
CA 36.1874 0.0149087 46.6594
CA 18.8373 -13.1197 66.6748
CA 42.3195 -0.974669 46.6181
CA 6.16434 -17.6764 59.3069
CA 21.9741 17.5778 41.2694
CA -2.39054 -8.09694 33.5203
CA -0.366338 -9.7654 28.1248
CA 15.7095 -23.9617 38.5267
CA 26.5153 -5.6659 36.1202
CA 3.24942 -14.5265 60.7483
CA 24.8149 -14.2125 41.1949
CA 2.47332 -18.0399 73.3465
CA 25.3567 5.09628 59.8392
CA 27.7678 -16.653 32.7385
CA 19.339 4.56492 49.1024
CA 4.10149 -20.2861 50.4449
CA 27.867 -24.1759 70.8709
CA 34.025 -16.0978 57.6455
CA 26.3675 10.7563 29.6949
CA 9.09829 -11.9886 62.2193
CA 10.3257 -11.2168 64.2002
CA -13.2125 -28.7273 39.9922
CA 12.6598 -1.91081 53.5325
CA -2.50866 -31.554 49.4845
CA 12.3638 -20.6245 65.4474
CA 3.07103 -32.9272 51.5608
CA 26.2775 -12.325 36.5991
CA 12.6527 -27.2934 67.5659
CA 0.0899831 -14.9949 78.8466
CA 29.1858 3.03434 62.1442
CA 26.8979 -22.128 38.3843
CA 29.4735 -27.2652 64.5158
CA 28.5312 -18.0804 39.4436
CA 11.8043 -8.69127 87.5345
CA 27.4214 -10.4464 49.6186
CA 23.7185 -27.6649 66.6606
CA 22.0627 2.47034 49.0124
CA 10.2366 -32.6114 75.7958
CA 17.2435 -7.71025 73.3867
CA 1.09164 -12.1778 73.2763
CA 9.98093 -19.6206 19.8509
CA 18.4643 -21.6232 59.7891
CA 16.8749 -27.3431 31.6857
CA 15.5291 -25.7161 43.0029
CA 38.3194 8.48701 43.8436
CA 20.9561 -9.68112 43.0217
CA 20.1125 -20.1584 40.8191
CA 26.6376 12.1678 46.2749
CA 31.1591 -21.5374 38.4831
CA 31.4386 -10.3219 52.6333
CA 10.4939 -15.9703 48.1378
CA 8.42301 -20.9157 44.0567
CA 18.3328 17.2109 53.3109
CA 19.7611 4.77455 54.9272
CA 6.23807 -15.7406 15.2044
CA 2.83568 -6.94953 56.4606
CA 5.54463 -11.6476 15.4947
CA 41.9503 1.57017 29.1308
CA 5.20898 -31.2032 62.6327
CA 6.81451 -9.96727 71.8118
CA 2.5228 -22.783 76.9695
CA 22.3132 10.092 45.8175
CA 23.8929 -27.6835 36.9937
CA 26.8922 7.60753 43.9853
CA 24.798 3.27394 56.7465
CA 8.36439 -25.525 40.8756
CA 2.48931 -13.7606 72.6378
CA 27.4726 -5.35329 47.6
CA 25.6168 -23.9734 35.7574
CA 18.9593 10.2161 36.9835
CA 26.0176 -16.155 41.4557
CA -9.30858 -31.4889 39.1261
CA -1.61537 -8.78922 60.7858
CA 23.3166 1.06338 34.0218
CA 9.22642 -6.61376 68.948
CA 14.1657 -17.3465 74.0133
CA 31.9893 -26.9031 75.188
CA 24.2424 -26.2652 59.2611
CA 24.4336 -1.89407 29.1663
CA 31.2194 -18.2708 54.4163
CA 28.9158 -9.8204 37.4655
CA 5.60916 -9.23657 12.4952
CA 18.4101 -18.0928 53.3471
CA 14.7446 -2.89552 56.8215
CA 7.88478 -21.5162 83.4184
CA 37.0187 -22.3057 73.9158
CA 29.8755 -16.1446 42.5369
CA -3.79991 -22.3523 62.0146
CA 0.309147 -33.7167 53.4378
CA 25.4985 -30.5305 62.5732
CA 2.71267 -9.69707 83.4391
CA 29.6991 -12.6641 52.942
CA 14.1812 -16.7189 23.1207
CA 48.2691 1.1007 43.7102
CA 23.9581 -26.044 65.1497
CA 26.1437 -14.6052 38.2509
CA 8.23969 -19.8546 56.5502
CA 30.6573 -21.0652 60.591
CA 13.6006 -31.2655 73.6788
CA 6.96635 -15.8059 10.8378
CA 32.7804 -4.53745 47.0581
CA 50.2889 1.18785 48.0155
CA 33.1139 -19.5691 45.5306
CA 5.69395 -23.0154 48.3741
CA 31.1216 -6.56119 48.7202
CA 17.7993 -16.6588 61.6188
CA 18.5164 -22.8548 72.1847
CA 7.52788 -21.275 65.7905
CA 15.4871 -14.7749 74.5168
CA 23.7837 -23.8921 45.6427
CA 25.8618 -14.5992 30.1844
CA 24.1944 -25.7574 62.5541
CA 45.8146 -2.61196 43.4636
CA 4.38247 0.642547 48.1843
CA 31.8353 1.62585 52.2262
CA 43.1294 3.96778 38.6977
CA 2.73438 -10.1402 72.2837
CA 7.64392 -21.1893 47.8994
CA 36.6715 -3.25153 42.2702
CA 36.312 -18.1259 50.5375
CA 20.6495 -10.4373 39.0792
CA 31.2154 -16.3715 41.2578
CA 17.6981 -11.3908 50.3621
CA 31.2452 -10.5759 49.9491
CA 10.4038 -23.01 30.7008
CA 22.042 -37.8547 36.8524
CA -2.28625 -19.9834 49.8636
CA 36.7045 12.1295 31.5218
CA 7.37795 -20.3792 51.4775
CA 8.67792 -34.0603 75.6933
CA 8.23957 -19.2449 16.0598
CA 29.3569 -14.9203 44.6289
CA 30.3891 -26.8989 60.4199
CA 26.3413 -22.1468 71.5259
CA 24.019 7.49466 39.2526
CA 32.5664 -22.9231 60.5501
CA 6.00572 -23.4704 58.9118
CA 11.3123 -30.4177 35.7505
CA 26.3594 -22.3651 35.3269
CA 21.8952 -9.10179 24.8768
CA 19.6337 14.2368 48.6939
CA 19.9072 -10.6364 70.2775
CA 3.8177 -5.36824 42.0629
CA 21.3814 1.59674 41.7137
CA 12.4524 -15.0136 36.9177
CA 24.7407 -18.5956 55.0629
CA 11.0263 -25.5769 55.72
CA 16.1179 -30.9128 47.5837
CA 15.5174 16.9549 40.4594
CA 27.1525 11.3297 54.5235
CA 6.23853 -1.62335 48.616
CA -6.64176 -32.0821 57.3571
CA 24.7887 -21.0937 39.1139
CA 13.6907 -8.91259 42.0926
CA 4.63064 -15.8214 84.9454
CA 31.653 -33.1687 39.2087
CA 42.3696 2.67658 32.2691
CA 1.46397 -11.7061 23.2074
CA 15.4935 -26.6864 80.0995
CA 18.7514 -36.3751 36.6852
CA 9.04485 -8.31447 60.7832
CA 25.0268 0.163531 63.569
CA 22.1146 -18.2939 39.6496
CA 14.926 -8.58901 50.605
CA 21.2903 -9.38197 23.1372
CA 44.5764 2.97149 36.7344
CA 11.9589 -17.582 57.1055
CA 7.33972 -17.264 13.5466
CA 11.8426 -25.9392 38.2337
CA 18.9458 -31.3296 44.1689
CA 8.26318 -25.0419 51.879
CA 24.4439 11.5339 31.8328
CA -9.26461 -25.6599 43.3434
CA 13.6021 -16.1945 18.1967
CA 3.49931 3.46075 42.6194
CA 17.7347 -6.2263 70.4473
CA -0.446809 -17.3724 41.2677
CA 17.0201 -17.9542 40.0855
CA 44.363 -14.0843 48.476
CA 43.7139 -4.4847 52.5304
CA 10.4097 -7.1638 43.9149
CA 4.23286 -34.5204 51.8151
CA 4.55411 -16.6068 15.9317
CA 24.6636 2.03028 38.6261
CA 19.3902 18.601 44.2757
CA 28.1847 -9.39294 65.5767
CA 28.5996 -17.4424 41.9152
CA 4.1254 -29.9027 90.4047
CA 21.8148 -16.1853 39.2826
CA 18.9834 -18.0434 48.6783
CA 33.6388 -36.2471 58.629
CA 31.7388 -22.283 53.7409
CA 27.7336 11.1835 37.063
CA 25.1994 -4.87536 37.6009
CA 9.72058 -13.4281 54.8246
CA -2.13696 -20.1067 51.8862
CA 10.645 -18.3193 34.8581
CA 44.4408 -6.78364 53.8908
CA -1.89527 -3.75832 5.6895
CA 15.155 14.0303 45.0907
CA 18.3597 -1.10069 64.1833
CA 4.3797 -13.1744 21.8535
CA 9.19951 -14.189 60.9279
CA 30.993 -13.936 55.9146
CA 25.871 -4.75909 31.8272
CA 25.8997 5.77144 40.0712
CA 14.4601 8.47175 49.8179
CA -5.23608 -30.0705 53.0991
CA 4.01419 -27.4701 81.6238
CA 0.707586 -30.4475 50.901
CA 38.1302 6.19111 34.3055
CA 33.1892 -20.9849 59.2949
CA -5.88464 -23.6614 59.9537
CA 24.8152 -6.66403 41.5862
CA 17.0753 -23.9006 66.8282
CA 16.7141 -13.8026 47.2409
CA 31.7402 6.33344 38.2153
CA 28.5658 -27.4573 70.7208
CA -12.7544 -25.1437 40.0207
CA 28.798 -25.8383 60.7491
CA 3.33042 -18.3279 50.6762
CA 23.3253 -14.8569 46.8566
CA 7.42308 -3.81062 45.3157
CA 21.6521 -13.1583 34.1174
CA 15.1462 -14.4858 51.3444
CA 46.6203 -4.68103 55.3134
CA 29.6245 3.45941 51.5202
CA 29.9296 -7.85224 47.7309
CA -0.923447 -22.1117 66.7867
CA 5.22963 -25.9073 55.9531
CA 18.1287 -7.69249 52.9615
CA 4.32244 -21.3432 80.0549
CA 12.7978 -27.5189 78.7869
CA 6.69821 -24.0416 56.0734
CA -10.3832 -30.7532 41.5913
CA 27.6263 -5.56248 43.615
CA 5.51919 -24.5194 54.4769
CA 32.3857 -19.4254 59.8714
CA 13.5959 -29.684 43.173
CA 0.235542 -21.024 62.4053
CA 22.4243 -11.6406 59.5234
CA 26.3374 -33.0794 62.7706
CA 2.93538 -5.84735 14.0345
CA 24.8603 -28.1112 42.6335
CA 6.5771 -25.0607 63.4213
CA 32.9818 0.343129 63.6067
CA 3.25396 -7.12086 11.2947
CA 34.1781 -22.6471 59.1549
CA 47.5846 -1.72247 45.9178
CA 34.5906 -12.2727 54.6038
CA 19.7402 -17.6434 40.5323
CA 27.5421 -36.0204 30.2605
CA 48.1025 -4.77255 52.0631
CA 7.76353 -15.8027 61.8342
CA 28.5403 -20.1526 54.8757
CA 18.4783 -28.9612 47.0337
CA 15.5902 -12.468 32.9057
CA 16.583 -28.8253 69.5672
CA 26.6279 -13.4602 39.6456
CA 25.4179 -9.62131 64.9672
CA 1.35858 -15.6506 44.0476
CA 17.9623 8.95654 50.2757
CA 30.4661 -20.4494 63.7976
CA 39.2587 11.0963 33.5077
CA 2.59911 -9.78857 42.6507
CA 13.2269 -19.6839 34.333
CA -11.5596 -26.4505 42.0439
CA 19.5391 14.4641 52.6462
CA 16.644 -30.5667 42.3012
CA 14.2668 -16.5892 50.3417
CA 3.75973 -14.3572 37.2423
CA 14.1576 2.93845 49.0739
CA 14.1058 1.97022 40.7684
CA 26.4175 8.34392 40.6926
CA 16.3476 -9.6007 64.6929
CA 17.292 -21.3878 70.6218
CA 14.7676 -7.61474 67.9743
CA -6.17429 -7.31252 34.3103
CA 10.2771 -12.0138 84.8347
CA 35.2482 2.15146 42.1662
CA 37.6819 -13.3682 56.9972
CA 21.9051 -11.7765 57.204
CA -2.45784 -38.3474 48.4965
CA 20.9939 -24.5779 62.7798
CA 31.8073 -21.8363 55.7492
CA 2.30824 -13.4385 27.7098
CA 35.2081 -23.1573 74.4093
CA -11.0349 -27.0984 49.5217
CA 39.9092 -21.992 49.5411
CA -3.10116 -15.0683 61.0009
CA 32.5114 -38.0144 58.4153
CA 17.512 2.27627 43.7692
CA 20.4995 8.23699 52.6055
CA 17.4377 9.35238 54.2194
CA 42.4517 -2.13165 36.4242
CA 11.0338 -24.5739 52.8532
CA 27.6131 0.00702863 49.0034
CA 23.8377 -30.3285 58.3297
CA 14.112 -16.3485 70.8966
CA 4.46116 -27.937 60.4008
CA 4.23377 -17.8859 17.4184
CA -8.53894 -30.0116 45.3563
CA 17.247 -20.8479 81.5558
CA 17.9367 -1.42572 61.2788
CA 1.73267 -18.0692 80.7865
CA 1.88097 -28.392 54.0588
CA 6.5983 -14.7057 13.1208
CA 12.2257 -14.7344 58.0174
CA 17.4356 -12.2733 77.1865
CA 5.10571 -3.39041 10.7587
CA 24.7791 -26.303 41.1128
CA 28.2376 12.8076 53.9554
CA 8.9361 -15.5304 89.4098
CA 37.9542 -4.66894 43.3809
CA 22.3276 0.782232 64.1963
CA 7.31523 -19.0021 46.4141
CA 7.91354 -23.0843 79.5016
CA 16.937 -5.12215 39.0838
CA -3.5115 -12.6046 33.0579
CA 33.7502 -0.611226 38.2773
CA 27.646 13.3799 42.2345
CA 21.0969 14.4229 42.3096
CA 16.4329 -0.0988118 65.1502
CA 34.1741 -27.7272 57.4259
CA 4.88742 -14.0641 19.268
CA 4.21347 -29.0285 55.777
CA 24.8496 -12.5474 63.2546
CA 20.6733 -14.0364 68.9715
CA 27.8999 -22.0011 34.1863
CA 44.4623 -8.82488 50.8694
CA 19.4692 -0.929324 45.7193
CA 14.0488 -19.6428 79.6409
CA 16.9286 -5.92657 37.1291
CA 5.66827 -33.1317 68.3686
CA 1.71189 -13.8206 39.7882
CA 2.99436 -40.5249 51.8228
CA 7.23657 -1.9477 6.03089
CA 29.4993 12.1247 46.562
CA 18.126 -6.61693 34.5351
CA 9.71735 -27.3266 41.3562
CA 15.2096 -9.56302 62.167
CA 10.6925 -32.3301 71.3856
CA 5.95398 1.92113 47.5906
CA 10.554 -19.3639 65.039
CA 1.44477 -16.0101 49.6635
CA 42.4994 -17.7197 48.8753
CA 20.2001 -11.6112 27.006
CA 14.7123 -28.0774 44.6748
CA 28.1951 -8.51544 39.9174
CA 24.1011 -1.73897 45.9555
CA 7.68881 -13.6717 62.2597
CA 20.1036 -8.09412 71.0913
CA 21.049 -4.14688 45.0477
CA 29.9676 -20.8045 41.4306
CA 13.1213 -18.2301 72.0601
CA 47.3238 -6.95187 52.0905
CA 25.9786 -31.539 39.4712
CA 48.6489 -4.40112 56.0094
CA 40.3917 -6.60672 46.3719
CA 3.19284 -2.01533 17.152
CA 18.2723 -7.97196 41.8887
CA 3.01164 -18.7482 15.5505
CA 47.7853 3.01921 41.5522
CA 23.5596 5.39248 55.4531
CA 26.5421 -20.3215 60.245
CA 6.90969 -26.8523 56.2043
CA 30.6477 -24.0992 45.3946
CA 24.8219 8.73976 57.7175
CA -1.86859 -29.9459 53.4072
CA 15.1702 -27.1777 36.4487
CA 24.6098 -39.4183 41.2761
CA 13.2019 -15.6066 75.5347
CA 3.64714 -17.7528 58.3313
CA 24.6683 -12.6816 34.0574
CA 21.2556 -12.0975 65.152
CA -9.61166 -27.1047 50.837
CA 29.8665 -0.0533752 34.1854
CA 24.9739 -21.2427 41.5665
CA 16.1655 -0.784108 47.1961
CA 33.5498 -1.33527 41.2732
CA -0.0352847 -11.2846 37.3666
CA 6.47025 -31.364 66.156
CA 6.94961 -11.5604 84.1299
CA 14.583 0.332258 64.3493
CA 23.5633 -37.2224 39.8557
CA 27.2211 -35.7415 35.2285
CA 34.2614 -25.0157 75.9402
CA 28.5266 4.83541 64.263
CA 3.32377 -4.04532 3.99256
CA 19.3754 -22.7087 74.897
CA 21.8223 -24.8554 27.9469
CA 13.8858 -17.8355 29.3713
CA 36.3074 -4.80976 37.6468
CA 30.0235 10.9626 42.2263
CA 7.87134 -1.9841 46.8149
CA 5.31407 -9.68815 65.3984
CA 43.0234 -3.79233 37.0113
CA 2.1344 -38.5797 51.2705
CA 27.7408 -4.01723 32.314
CA 11.8539 -25.0554 67.4577
CA 18.3552 -26.3367 36.434
CA 28.2854 -12.2578 55.4725
CA 21.5549 -28.2535 36.8222
CA 27.2673 -20.1044 39.6895
CA 1.46455 -6.14652 7.13234
CA 29.2068 -17.1653 57.0439
CA 11.0859 -20.9727 79.7262
CA 5.27042 -26.2689 75.7611
CA 2.01266 -25.1186 82.4657
CA 31.7859 3.31198 61.8842
CA 9.32044 -5.81539 64.9548
CA 11.529 -23.3255 82.3313
CA 44.2549 -4.73485 43.6322
CA 8.90373 -22.5111 57.8017
CA -11.6973 -28.2633 41.0443
CA 36.3994 6.26839 42.3666
CA 33.9232 -17.9882 41.4955
CA 13.3045 -14.924 81.0851
CA 20.1969 8.46519 43.6444
CA 19.9235 -5.95923 41.5761
CA 31.2301 -20.7232 58.7768
CA 5.10769 -14.6432 87.3456
CA 16.1479 -14.8742 43.8822
CA 10.7647 -5.47034 67.2479
CA 12.7155 17.2049 40.3885
CA 8.47868 -26.1783 85.6071
CA 21.3951 -25.6912 31.8932
