489

CA 9.15495 -20.9399 82.6339
CA 18.1961 -13.8738 50.1394
CA 41.2921 -12.1515 54.6985
CA 31.0205 -18.4693 45.7439
CA 28.6715 -21.2576 60.9898
CA 7.9815 -5.48891 11.6166
CA 14.9079 -12.9032 58.0058
CA 14.3587 -23.9225 75.8333
CA 1.1155 -31.3796 88.0756
CA 29.8026 4.85369 48.3076
CA 17.3805 -25.8292 46.3732
CA 20.4678 -25.2715 77.7379
CA 19.8855 -7.58127 42.8846
CA 15.4657 -8.20214 57.5368
CA 25.267 -36.2095 35.177
CA 27.14 10.5716 40.1222
CA 29.6375 7.31067 63.7881
CA 31.4228 3.10598 59.599
CA 9.12507 -8.71282 47.8472
CA 17.8881 -30.0763 65.368
CA 32.2036 0.200944 37.5061
CA 5.65989 -4.97464 15.5879
CA 34.3281 2.86954 40.0141
CA 0.669301 -9.82099 60.1702
CA 20.3402 4.80636 38.5549
CA 25.2008 -10.708 38.1428
CA 18.3512 -9.33899 78.9222
CA 15.1903 -23.0456 70.5913
CA 5.23604 -27.4511 88.8457
CA 11.2418 -24.9241 50.65
CA 31.652 -15.4929 37.5361
CA 29.6877 -17.6406 58.9581
CA 36.8603 13.9401 31.3066
CA -0.708191 -19.09 64.5829
CA 3.18026 -27.4419 93.1703
CA 12.3198 -26.3767 70.0834
CA 16.5121 -22.6214 80.5701
CA 36.333 -12.9543 51.7863
CA 23.3681 4.77261 66.0498
CA 20.0599 -30.222 42.6096
CA 11.2062 -23.2457 56.0091
CA -7.93017 -25.1472 62.601
CA 18.5474 3.90987 51.996
CA 24.9764 -3.8992 44.2577
CA 25.8798 -13.0541 45.0366
CA 24.4621 -19.3215 37.6342
CA 48.4842 -0.674927 47.0787
CA 25.6078 -28.2897 71.5117
CA 1.04917 -13.108 78.9928
CA 17.1725 -4.70886 34.5641
CA 0.091807 -17.188 76.8671
CA 5.10301 -23.3999 79.6668
CA 2.78813 -17.3743 63.9124
CA 31.5654 -40.8275 56.1152
CA 43.3351 -0.81436 45.1068
CA 28.1482 0.124195 51.0385
CA 30.4739 -18.9565 40.6422
CA 22.0092 14.7929 54.5487
CA 4.96731 -8.02359 15.6138
CA 34.4584 7.12642 40.4078
CA 10.7452 -25.1227 79.2949
CA -0.313039 -40.9357 51.0605
CA 5.51535 -12.9978 17.862
CA 13.0646 -1.51042 41.0177
CA 42.3195 -0.974669 46.6181
CA 10.3489 -16.2042 22.4094
CA 21.9741 17.5778 41.2694
CA 14.9211 -32.4693 75.6745
CA 6.11413 -17.6256 52.2588
CA 15.7095 -23.9617 38.5267
CA 26.5153 -5.6659 36.1202
CA 3.24942 -14.5265 60.7483
CA 26.2294 -14.9424 33.9518
CA -0.426386 -7.20458 54.2174
CA 13.7738 -13.4273 48.5927
CA 27.7678 -16.653 32.7385
CA 28.7946 0.302151 60.9164
CA 4.10149 -20.2861 50.4449
CA 28.9051 -15.7311 53.7687
CA 6.39453 -18.2806 63.6298
CA 25.6919 -32.8729 40.2096
CA 9.09829 -11.9886 62.2193
CA 24.0683 2.45267 64.4662
CA 13.1223 -17.1273 45.5214
CA 12.6598 -1.91081 53.5325
CA 4.60273 -29.6882 58.2185
CA 28.6944 -39.4108 55.7039
CA 21.7971 -11.802 67.8053
CA 26.3163 -12.7675 40.3256
CA 4.54894 -13.7697 16.4557
CA 10.0822 -9.83373 42.5596
CA 29.1858 3.03434 62.1442
CA 10.8867 -17.0203 19.5119
CA -1.4776 -43.3277 51.6239
CA 8.96573 -28.5073 54.4959
CA 4.68944 -24.6716 87.448
CA 27.4214 -10.4464 49.6186
CA 13.9118 -23.2018 80.0479
CA 19.5966 -17.5204 81.6472
CA 10.2366 -32.6114 75.7958
CA 17.2435 -7.71025 73.3867
CA 9.06337 -26.7207 47.5415
CA 10.121 -3.21133 58.6777
CA -6.44764 -7.07211 36.6908
CA 16.8749 -27.3431 31.6857
CA 18.552 -6.7694 66.171
CA 14.8295 -22.1013 59.7717
CA 25.3354 -23.7946 68.7579
CA 20.1125 -20.1584 40.8191
CA 26.6376 12.1678 46.2749
CA 12.6131 0.500574 48.7379
CA 31.4386 -10.3219 52.6333
CA 40.1789 -14.7381 57.7256
CA 8.42301 -20.9157 44.0567
CA 26.4907 -32.911 36.6611
CA 29.7628 3.94238 43.4556
CA 6.23807 -15.7406 15.2044
CA 2.83568 -6.94953 56.4606
CA 5.54463 -11.6476 15.4947
CA 22.1878 7.59111 52.1574
CA 5.20898 -31.2032 62.6327
CA 18.065 -31.0946 68.6436
CA 48.158 -1.82364 48.6414
CA 22.3132 10.092 45.8175
CA 29.3898 -20.512 45.626
CA 26.8922 7.60753 43.9853
CA -8.83307 -23.9218 41.8859
CA 8.36439 -25.525 40.8756
CA 10.1735 -26.7809 67.3429
CA -3.93444 -33.7031 54.0618
CA 46.2646 -5.25006 42.6406
CA 18.9593 10.2161 36.9835
CA -4.57835 -20.859 59.9963
CA 11.2532 -13.9475 61.4503
CA -1.61537 -8.78922 60.7858
CA 9.9474 -3.03478 40.7871
CA 34.1731 -31.6313 55.4681
CA 15.057 -17.9415 55.4036
CA 27.2772 -15.1703 50.3233
CA 24.2424 -26.2652 59.2611
CA 21.6023 0.86789 48.0269
CA 26.2795 10.4603 34.7278
CA 15.1718 6.19528 59.0011
CA 18.3125 10.8538 35.0648
CA 18.4101 -18.0928 53.3471
CA 14.7446 -2.89552 56.8215
CA 14.774 -30.2126 68.3979
CA 37.0187 -22.3057 73.9158
CA 29.8755 -16.1446 42.5369
CA 13.4171 -11.8444 28.808
CA 2.46121 -2.27341 8.71783
CA 25.4985 -30.5305 62.5732
CA 16.5274 -6.45037 72.0486
CA 20.312 -14.5092 51.1869
CA 14.1812 -16.7189 23.1207
CA 48.2691 1.1007 43.7102
CA 16.2886 -16.8449 79.316
CA 26.1437 -14.6052 38.2509
CA 8.23969 -19.8546 56.5502
CA 19.3181 -18.5028 72.878
CA 6.0009 -2.72898 43.8684
CA 10.9539 -24.0429 86.6217
CA 18.2618 17.1727 57.1052
CA 50.2889 1.18785 48.0155
CA 33.1139 -19.5691 45.5306
CA 33.5296 -13.4953 31.7278
CA 7.36365 -16.0611 57.6105
CA 17.7993 -16.6588 61.6188
CA 30.8243 -12.6961 34.577
CA 7.89819 -29.3582 41.5681
CA 31.0714 -8.5716 50.4031
CA 17.8626 -2.98197 66.3853
CA -1.71952 -21.2878 63.0379
CA 27.4135 -19.3434 56.1995
CA 45.8146 -2.61196 43.4636
CA 4.38247 0.642547 48.1843
CA 17.0684 -17.821 31.8302
CA 43.1294 3.96778 38.6977
CA 2.73438 -10.1402 72.2837
CA 20.952 -26.4858 45.2077
CA 36.6715 -3.25153 42.2702
CA 36.312 -18.1259 50.5375
CA 18.3195 -17.067 68.3373
CA -8.42646 -23.2747 59.5723
CA 20.2941 -22.1281 72.3049
CA 19.6727 -4.5616 42.7416
CA 10.4038 -23.01 30.7008
CA 22.042 -37.8547 36.8524
CA -2.28625 -19.9834 49.8636
CA 36.7045 12.1295 31.5218
CA 9.32775 -15.283 64.0946
CA 7.65987 -13.3218 82.8453
CA 8.23957 -19.2449 16.0598
CA 18.8944 -6.6208 73.9509
CA -1.83142 -30.9051 56.3531
CA 15.8937 4.78643 44.6748
CA 14.0097 -16.4685 43.1528
CA 32.5664 -22.9231 60.5501
CA 29.7836 -15.6769 35.4814
CA 8.70339 -15.1524 21.0057
CA 19.2556 -30.1381 51.3325
CA 24.3106 -25.7139 36.6218
CA 19.6337 14.2368 48.6939
CA 19.1232 10.7745 54.7203
CA 3.8177 -5.36824 42.0629
CA 4.64213 -1.99217 46.5645
CA 28.1267 -33.3236 43.7091
CA 39.0443 -13.117 51.6828
CA 17.0165 -27.9902 52.8046
CA 16.1179 -30.9128 47.5837
CA 15.5174 16.9549 40.4594
CA 27.1525 11.3297 54.5235
CA 6.23853 -1.62335 48.616
CA 5.74279 -18.0358 85.4032
CA 10.5493 -8.39561 60.3125
CA 15.3075 -6.53857 41.6046
CA 4.63064 -15.8214 84.9454
CA 17.7518 -2.86481 75.3618
CA 42.3696 2.67658 32.2691
CA 1.46397 -11.7061 23.2074
CA 23.3598 -14.5582 38.553
CA 40.2908 -17.7995 51.2163
CA 31.7585 -21.8632 49.1329
CA 25.0268 0.163531 63.569
CA 22.1146 -18.2939 39.6496
CA 12.5683 -19.6188 70.0193
CA 33.8267 5.30333 49.4273
CA 44.5764 2.97149 36.7344
CA 11.9589 -17.582 57.1055
CA 7.33972 -17.264 13.5466
CA 10.3285 -15.483 61.7327
CA 15.0294 4.98972 42.6817
CA 28.2216 -19.4259 42.9643
CA 24.4439 11.5339 31.8328
CA 18.7798 -12.729 64.5649
CA 13.6021 -16.1945 18.1967
CA 3.49931 3.46075 42.6194
CA 20.8842 -5.8025 45.017
CA 33.1335 -27.1715 73.77
CA 17.0201 -17.9542 40.0855
CA 44.363 -14.0843 48.476
CA 11.7856 -21.6751 77.2912
CA 10.4097 -7.1638 43.9149
CA 4.23286 -34.5204 51.8151
CA 9.17613 -10.6617 10.5134
CA 22.2892 -27.8913 54.3577
CA 35.4336 -18.0344 43.7793
CA 28.1847 -9.39294 65.5767
CA 28.5996 -17.4424 41.9152
CA 15.8402 -15.3055 48.4809
CA 35.9578 -28.2931 74.8744
CA 9.78849 -16.8456 10.1334
CA 33.6388 -36.2471 58.629
CA 18.7552 -14.6817 29.335
CA 24.9806 -20.0438 42.252
CA 25.1994 -4.87536 37.6009
CA 20.749 -27.5348 68.5574
CA 12.1734 -10.7942 61.1305
CA 26.893 -22.5561 41.9222
CA 9.86362 -23.5763 45.3732
CA 24.1132 -36.6222 33.5963
CA 15.155 14.0303 45.0907
CA 42.9468 0.170618 37.5758
CA 22.0328 5.30242 53.4605
CA 9.19951 -14.189 60.9279
CA 25.7151 3.5457 39.1217
CA 13.1885 -22.333 45.6526
CA 8.43138 -16.0829 25.6026
CA 27.0749 -28.4964 37.8319
CA -5.23608 -30.0705 53.0991
CA 26.0256 -22.3719 54.0282
CA 0.707586 -30.4475 50.901
CA 38.1302 6.19111 34.3055
CA 20.1034 -15.3782 69.354
CA 17.0278 -18.2262 57.8525
CA 16.0711 -12.8241 73.891
CA 8.32983 -9.04518 64.0887
CA 17.1107 -20.2184 58.4393
CA 19.5289 -15.1899 65.4143
CA 28.5658 -27.4573 70.7208
CA 16.6798 5.33778 59.8701
CA 28.798 -25.8383 60.7491
CA 29.5779 -14.1849 53.1021
CA 7.60849 2.08583 43.0948
CA 5.19629 -34.9068 67.8909
CA 21.6521 -13.1583 34.1174
CA 24.815 -36.1223 39.4396
CA 28.1624 -18.2645 47.6681
CA 18.4361 -9.8533 75.1199
CA 18.1783 -16.4355 47.8938
CA 27.5224 -15.792 45.838
CA 4.6465 -14.9604 12.2243
CA 13.499 1.41453 42.5934
CA 4.32244 -21.3432 80.0549
CA 15.0329 -19.7451 68.6875
CA 6.69821 -24.0416 56.0734
CA -10.3832 -30.7532 41.5913
CA 40.4231 7.8212 32.6444
CA 5.49079 -19.5012 57.5373
CA 6.11186 -14.5904 62.7879
CA 9.87747 -9.26064 57.5377
CA 0.235542 -21.024 62.4053
CA -2.82451 -18.8257 75.2791
CA 16.2965 -28.5132 79.9182
CA 14.9803 -12.469 62.5461
CA 24.8603 -28.1112 42.6335
CA 7.59725 -11.5166 11.5433
CA 32.9818 0.343129 63.6067
CA 3.25396 -7.12086 11.2947
CA 28.5836 -18.4657 44.8827
CA 47.5846 -1.72247 45.9178
CA 44.5754 -7.32203 46.7009
CA 24.4288 -30.6379 71.0411
CA 44.9195 -10.6171 50.4638
CA 48.1025 -4.77255 52.0631
CA 7.7968 -7.22364 67.5251
CA 14.2163 -18.9393 43.9036
CA 18.4783 -28.9612 47.0337
CA -1.88409 -19.3763 44.8199
CA 18.3393 -18.3517 78.7032
CA 7.04673 -23.2565 84.0699
CA 25.836 -24.1615 30.2031
CA 19.885 0.330986 47.4942
CA 17.9623 8.95654 50.2757
CA 14.1971 -13.3991 27.166
CA 5.10233 -28.0793 56.9762
CA 2.59911 -9.78857 42.6507
CA 13.2269 -19.6839 34.333
CA 9.47324 -13.5704 53.5261
CA 19.8663 -10.6906 57.0006
CA 16.644 -30.5667 42.3012
CA 14.2668 -16.5892 50.3417
CA -9.97287 -26.9624 45.5791
CA 31.5355 -22.9025 58.8727
CA 14.1058 1.97022 40.7684
CA 19.0326 -5.53076 38.7835
CA 24.8018 -9.39484 59.1717
CA 17.292 -21.3878 70.6218
CA 27.1007 -33.2296 62.2333
CA 5.65525 -22.3198 81.5022
CA 10.2771 -12.0138 84.8347
CA 35.2482 2.15146 42.1662
CA 37.6819 -13.3682 56.9972
CA 21.9051 -11.7765 57.204
CA 26.9374 9.81773 47.7184
CA 30.6111 6.72889 34.5363
CA 11.8148 -13.2807 59.5683
CA 24.9506 -11.7936 65.7889
CA 17.2287 -2.44629 40.0134
CA 31.8814 -26.0259 57.7082
CA -8.11485 -29.2481 55.0394
CA 2.33582 -33.7561 62.8989
CA 41.5323 1.32934 37.6779
CA 22.9036 10.6646 39.0964
CA 10.8073 -16.6227 51.376
CA 33.7456 -26.8375 76.1767
CA 42.4517 -2.13165 36.4242
CA 11.0338 -24.5739 52.8532
CA 20.4162 -27.2197 70.3835
CA 23.8377 -30.3285 58.3297
CA 14.112 -16.3485 70.8966
CA 4.46116 -27.937 60.4008
CA 12.3057 -16.821 34.6176
CA 41.749 2.63081 38.9542
CA 17.247 -20.8479 81.5558
CA 17.9367 -1.42572 61.2788
CA 1.73267 -18.0692 80.7865
CA 1.88097 -28.392 54.0588
CA 6.5983 -14.7057 13.1208
CA 4.60735 -17.4244 56.5021
CA 17.4356 -12.2733 77.1865
CA -6.28689 -20.5131 59.0003
CA 8.30986 -7.74124 10.3574
CA 29.1805 -12.2094 38.6147
CA 21.9258 -2.89881 49.3705
CA 21.3639 -25.2592 67.0888
CA 22.3276 0.782232 64.1963
CA 7.31523 -19.0021 46.4141
CA -2.3666 -10.3909 38.5962
CA 16.937 -5.12215 39.0838
CA 7.89082 -8.41294 69.1189
CA 33.7502 -0.611226 38.2773
CA 19.3438 -25.5086 38.5639
CA 21.0969 14.4229 42.3096
CA 31.3455 -20.2873 42.1247
CA 34.1741 -27.7272 57.4259
CA 4.88742 -14.0641 19.268
CA 26.7725 -29.1287 72.7168
CA 24.9091 -23.6227 33.5295
CA 29.777 5.01227 70.6314
CA 27.8999 -22.0011 34.1863
CA 44.4623 -8.82488 50.8694
CA 15.2803 -30.2193 45.3186
CA 14.0488 -19.6428 79.6409
CA 1.64465 -9.51122 26.7466
CA 5.66827 -33.1317 68.3686
CA 1.71189 -13.8206 39.7882
CA -10.615 -24.4214 49.8803
CA 26.0659 -34.1853 38.6256
CA 23.1203 -10.5295 63.3765
CA 18.126 -6.61693 34.5351
CA 19.2627 6.11691 54.1904
CA 9.69353 -17.203 13.1102
CA 10.6925 -32.3301 71.3856
CA 5.95398 1.92113 47.5906
CA 13.5084 -8.13312 65.2322
CA 1.44477 -16.0101 49.6635
CA 20.3625 2.84704 51.2351
CA 20.2001 -11.6112 27.006
CA -1.34085 -10.114 35.3743
CA 20.7591 -13.5317 58.9981
CA 23.8369 -23.9613 41.7951
CA 13.1572 -30.4081 43.0758
CA 38.4036 -26.2396 58.5583
CA 5.84262 -21.0082 48.7569
CA -7.05489 -4.94169 38.4054
CA 30.699 -30.6973 76.4559
CA 26.5086 6.93809 37.8935
CA 10.9251 -14.7366 56.2423
CA 27.8535 6.04742 46.5327
CA 46.0296 -0.256505 45.1539
CA 3.19284 -2.01533 17.152
CA 18.2723 -7.97196 41.8887
CA 3.01164 -18.7482 15.5505
CA 27.3136 -22.7595 32.1278
CA 36.1725 -24.7236 78.2057
CA 14.8013 -16.8767 81.9439
CA 27.7882 -20.3042 48.8655
CA 19.6053 -13.1889 79.468
CA 24.8219 8.73976 57.7175
CA -1.86859 -29.9459 53.4072
CA 21.4967 6.47039 57.2068
CA 8.70066 -12.342 59.2772
CA 8.27411 -29.1629 51.2617
CA 28.2462 -34.2429 64.6471
CA 27.2062 -7.86632 42.0816
CA 30.4082 -12.6239 57.8328
CA -9.61166 -27.1047 50.837
CA 29.8665 -0.0533752 34.1854
CA 47.7377 -3.47673 47.161
CA 16.1655 -0.784108 47.1961
CA 33.5498 -1.33527 41.2732
CA 10.9875 -36.2659 73.4348
CA 6.47025 -31.364 66.156
CA 37.9266 -24.9921 76.6211
CA 4.82417 -15.545 24.7006
CA 17.9003 -17.1715 55.826
CA 27.2211 -35.7415 35.2285
CA 34.2614 -25.0157 75.9402
CA 2.87564 -15.362 86.9328
CA 3.32377 -4.04532 3.99256
CA 19.3754 -22.7087 74.897
CA 21.8223 -24.8554 27.9469
CA 13.8858 -17.8355 29.3713
CA 27.4133 -36.0909 52.4275
CA 15.4848 -15.065 43.5389
CA 21.6101 12.2629 50.7899
CA 44.4639 1.49195 47.3171
CA 43.0234 -3.79233 37.0113
CA 2.1344 -38.5797 51.2705
CA 27.7408 -4.01723 32.314
CA 11.8539 -25.0554 67.4577
CA 21.8277 -14.9703 68.7662
CA 26.5092 -10.6795 64.3558
CA 21.5549 -28.2535 36.8222
CA 15.2585 -7.52024 63.4349
CA 5.81739 -29.8353 60.2974
CA 29.2068 -17.1653 57.0439
CA 13.8861 -21.2298 69.1664
CA 45.1965 4.56449 33.7783
CA 2.01266 -25.1186 82.4657
CA 26.7297 -17.5527 50.346
CA 31.1399 -17.1948 41.6343
CA 11.529 -23.3255 82.3313
CA 44.2549 -4.73485 43.6322
CA -5.87782 -20.6821 62.9922
CA 3.67715 -1.92084 56.4491
CA 11.126 -29.3481 43.2054
CA 10.7807 -21.4364 11.7796
CA 26.7317 -6.80285 47.4782
CA 20.1969 8.46519 43.6444
CA 19.9235 -5.95923 41.5761
CA 31.2301 -20.7232 58.7768
CA 1.49043 -11.2756 75.3401
CA 20.852 -29.0775 50.5227
CA 34.1564 6.07817 35.145
CA 29.6594 5.20523 67.348
CA 8.47868 -26.1783 85.6071
CA 21.3951 -25.6912 31.8932
