489

CA 30.7725 -26.9516 76.5548
CA 18.1961 -13.8738 50.1394
CA 41.2921 -12.1515 54.6985
CA 6.38409 -16.0837 56.3313
CA 28.6715 -21.2576 60.9898
CA 20.9474 -29.8955 60.4262
CA 12.26 -11.289 67.0645
CA 14.3587 -23.9225 75.8333
CA 1.1155 -31.3796 88.0756
CA 7.25458 -26.9287 54.3702
CA 29.2849 -4.14461 47.1606
CA 27.0838 -0.251965 66.4343
CA 22.8493 -7.57997 36.4218
CA 33.5247 5.04549 37.1981
CA 25.267 -36.2095 35.177
CA 26.294 -17.3317 39.7384
CA 14.4175 -20.0744 43.3153
CA 15.8775 -24.9708 44.6473
CA 36.3492 -29.3177 60.6953
CA 22.07 -29.8963 47.2613
CA 32.2036 0.200944 37.5061
CA 5.65989 -4.97464 15.5879
CA 3.63603 -12.1589 22.9857
CA 0.669301 -9.82099 60.1702
CA 15.3963 -20.1409 30.0326
CA 36.5282 -8.97579 57.447
CA 7.9674 -11.6583 84.4893
CA 15.1903 -23.0456 70.5913
CA 5.23604 -27.4511 88.8457
CA 0.756814 -39.497 52.6146
CA 31.652 -15.4929 37.5361
CA 5.37916 -8.94766 12.539
CA 45.5135 5.76175 31.2047
CA -0.708191 -19.09 64.5829
CA 7.89561 -13.7813 85.3054
CA 11.3664 -25.5742 58.2484
CA 16.5121 -22.6214 80.5701
CA 1.85255 -7.03577 13.4727
CA 24.9771 -11.8466 62.9115
CA -6.97814 -9.18324 36.8048
CA 27.6709 3.14261 44.8199
CA -7.93017 -25.1472 62.601
CA 9.22454 -12.6046 51.6764
CA 24.9764 -3.8992 44.2577
CA 25.8798 -13.0541 45.0366
CA 16.8553 -31.509 74.6176
CA 31.5125 0.985609 48.5532
CA 25.6078 -28.2897 71.5117
CA 1.04917 -13.108 78.9928
CA 11.9564 -28.5675 67.6737
CA 28.8884 -11.3733 61.1687
CA 5.10301 -23.3999 79.6668
CA 2.78813 -17.3743 63.9124
CA 31.5654 -40.8275 56.1152
CA 22.572 -30.4857 69.7486
CA 25.7415 -6.49869 65.9383
CA -1.65215 -43.2335 49.5023
CA 44.402 -7.24245 43.8763
CA 4.96731 -8.02359 15.6138
CA 32.5415 -43.8033 57.94
CA 33.1958 -16.0032 33.4099
CA 27.0378 7.05007 40.5882
CA 19.5502 -15.4075 35.802
CA 38.0626 -14.4278 52.9275
CA 29.7774 -1.82385 56.6143
CA 10.3489 -16.2042 22.4094
CA 19.6335 12.309 48.0101
CA 14.9211 -32.4693 75.6745
CA 21.8796 -33.0309 68.2867
CA 4.70159 -16.2637 14.0199
CA 26.5153 -5.6659 36.1202
CA 3.24942 -14.5265 60.7483
CA 20.8427 -25.595 34.183
CA -0.426386 -7.20458 54.2174
CA 13.7738 -13.4273 48.5927
CA 29.1026 -37.295 65.3423
CA 28.7946 0.302151 60.9164
CA 4.10149 -20.2861 50.4449
CA 28.9051 -15.7311 53.7687
CA 6.39453 -18.2806 63.6298
CA 25.6919 -32.8729 40.2096
CA 28.9029 -18.5499 39.2016
CA 24.0683 2.45267 64.4662
CA -7.42482 -22.3291 63.2958
CA 12.6598 -1.91081 53.5325
CA 4.60273 -29.6882 58.2185
CA 28.6944 -39.4108 55.7039
CA 30.4807 8.82992 49.8873
CA 22.9353 -15.155 65.5612
CA 20.1044 -11.3244 41.1693
CA 10.0822 -9.83373 42.5596
CA 23.3575 11.3973 31.2717
CA 31.329 15.4282 45.9615
CA -1.4776 -43.3277 51.6239
CA 30.472 -2.01965 37.119
CA 4.68944 -24.6716 87.448
CA 27.4214 -10.4464 49.6186
CA 13.9118 -23.2018 80.0479
CA 19.5966 -17.5204 81.6472
CA 10.2366 -32.6114 75.7958
CA 17.2435 -7.71025 73.3867
CA 11.9277 -38.5795 70.659
CA 17.9109 -17.7952 43.1707
CA -6.44764 -7.07211 36.6908
CA 16.8749 -27.3431 31.6857
CA 37.848 -0.440206 41.2881
CA 14.8295 -22.1013 59.7717
CA 18.7732 -11.6097 73.3331
CA 19.7811 -30.0343 44.7087
CA 4.27943 -15.3951 58.6127
CA 12.6131 0.500574 48.7379
CA 31.4386 -10.3219 52.6333
CA 40.1789 -14.7381 57.7256
CA 16.1723 -19.764 74.0347
CA 26.4907 -32.911 36.6611
CA 37.5772 -24.5081 57.5752
CA 34.5059 -11.7511 59.0846
CA 2.83568 -6.94953 56.4606
CA 5.54463 -11.6476 15.4947
CA 22.1878 7.59111 52.1574
CA 9.77794 -11.8123 58.0926
CA -1.93103 -41.836 48.2245
CA 7.19987 -12.147 38.6338
CA 22.3132 10.092 45.8175
CA 29.9039 -25.7232 72.5962
CA 39.6753 -17.22 47.6839
CA 14.1355 2.73448 49.1677
CA 8.36439 -25.525 40.8756
CA -5.63917 -18.8329 62.4665
CA 39.8926 3.14516 37.8199
CA 46.2646 -5.25006 42.6406
CA 18.9593 10.2161 36.9835
CA 20.2827 -16.8094 74.8473
CA -11.3535 -33.3678 42.6136
CA -1.61537 -8.78922 60.7858
CA 9.9474 -3.03478 40.7871
CA 29.8845 0.1834 36.7858
CA 6.13093 -35.3065 52.0606
CA 47.6826 -7.29783 53.2376
CA 24.2424 -26.2652 59.2611
CA 1.73246 -22.4789 62.3204
CA 26.2795 10.4603 34.7278
CA 29.9525 -26.517 78.6995
CA 18.3125 10.8538 35.0648
CA 13.7216 -24.8814 51.8149
CA 14.7446 -2.89552 56.8215
CA 12.9206 -15.775 64.3203
CA 42.0968 -17.7654 61.3331
CA 29.8755 -16.1446 42.5369
CA 19.3003 -17.8525 26.7994
CA 2.46121 -2.27341 8.71783
CA 25.4985 -30.5305 62.5732
CA 16.5274 -6.45037 72.0486
CA 30.8065 9.94712 33.7636
CA 21.2032 -31.971 60.4172
CA 11.9328 -24.0635 48.5665
CA 7.85071 -14.2493 52.7158
CA 26.1437 -14.6052 38.2509
CA 14.7171 -9.16753 72.974
CA 25.5374 -21.7076 60.046
CA 6.0009 -2.72898 43.8684
CA 29.143 0.387414 64.4242
CA 11.3007 -24.2036 76.8753
CA 19.3331 -16.517 56.4821
CA 16.8722 -30.2281 53.8402
CA 7.73164 -11.0398 55.6303
CA 23.6455 -33.023 65.9741
CA 15.3053 -9.53237 64.0091
CA 30.8243 -12.6961 34.577
CA 16.564 -23.3167 47.72
CA 31.0714 -8.5716 50.4031
CA 17.8626 -2.98197 66.3853
CA -1.71952 -21.2878 63.0379
CA -9.03123 -25.806 58.1613
CA 45.8146 -2.61196 43.4636
CA 14.2127 -13.6359 51.0479
CA 14.2465 -7.93001 74.5282
CA 35.8067 -23.4746 59.9598
CA 27.7948 -13.0734 42.6848
CA 20.4848 6.57864 50.6875
CA 22.9094 -29.5093 39.7457
CA 36.312 -18.1259 50.5375
CA 30.8663 -19.2937 43.6683
CA 31.7269 -19.5349 53.1698
CA 34.7009 -24.9422 75.2864
CA 19.6727 -4.5616 42.7416
CA 26.958 -10.2065 37.2586
CA 22.042 -37.8547 36.8524
CA -0.718238 -13.2219 41.3249
CA 36.7045 12.1295 31.5218
CA 9.32775 -15.283 64.0946
CA 7.65987 -13.3218 82.8453
CA 8.23957 -19.2449 16.0598
CA 14.2947 -26.447 43.48
CA 14.7692 -30.1589 63.1508
CA 18.8727 -14.296 63.8144
CA 41.324 5.03591 39.3556
CA 9.12943 -25.3603 43.4313
CA 29.7836 -15.6769 35.4814
CA 27.754 11.802 48.3557
CA 27.8488 -13.4352 40.5563
CA 18.5821 -6.57737 78.238
CA 32.2917 -25.5178 61.3126
CA 19.1232 10.7745 54.7203
CA 3.8177 -5.36824 42.0629
CA 28.849 -0.974463 48.1531
CA 30.0497 -37.2701 63.3873
CA 16.3059 -19.987 20.4229
CA 17.0165 -27.9902 52.8046
CA 6.34755 -24.0133 48.7062
CA 6.46163 -18.623 54.1277
CA 15.1264 2.02272 59.8457
CA 2.54172 -1.75847 58.4928
CA 38.0732 -2.68387 37.7203
CA -5.80521 -29.3899 54.8854
CA 1.99435 -38.1245 53.3366
CA 22.6004 4.59732 44.5539
CA 17.7518 -2.86481 75.3618
CA 23.2755 9.51742 48.0164
CA 2.25277 -40.3303 47.4188
CA -1.67115 -12.6657 59.6688
CA 40.2908 -17.7995 51.2163
CA 17.0806 -29.4066 47.1648
CA 25.0268 0.163531 63.569
CA 22.1146 -18.2939 39.6496
CA 18.5954 -29.7209 65.4106
CA 46.3211 -1.12324 42.3825
CA -7.92919 -29.0585 58.1703
CA 30.7815 -14.4958 40.6457
CA 41.9448 -9.21384 50.9998
CA 15.4805 -27.6594 75.5368
CA 19.2401 -1.86769 62.4586
CA 9.77016 -24.291 57.8741
CA 32.3462 -21.5634 44.1095
CA 10.5829 -14.2576 24.8855
CA 13.6021 -16.1945 18.1967
CA 9.14485 -16.9641 62.1781
CA 29.7288 -14.3991 33.425
CA 33.1335 -27.1715 73.77
CA 6.53794 -17.7638 80.7177
CA 44.363 -14.0843 48.476
CA 11.7856 -21.6751 77.2912
CA 10.796 -12.425 55.45
CA 4.23286 -34.5204 51.8151
CA 31.9076 10.6275 60.8273
CA 22.2892 -27.8913 54.3577
CA 35.4336 -18.0344 43.7793
CA 28.1847 -9.39294 65.5767
CA 28.5996 -17.4424 41.9152
CA 16.7058 -27.0171 48.1415
CA -10.6367 -25.4839 57.1296
CA 31.7294 -25.4547 48.2192
CA 33.6388 -36.2471 58.629
CA 18.7552 -14.6817 29.335
CA 11.6093 0.682215 50.511
CA 25.1994 -4.87536 37.6009
CA 20.749 -27.5348 68.5574
CA 12.1734 -10.7942 61.1305
CA 39.1831 3.36347 41.4422
CA 25.0876 11.5496 40.2117
CA 32.4653 -22.7769 77.7247
CA 12.4872 -17.6464 77.559
CA 15.8583 -21.9678 42.885
CA 23.2588 2.49799 60.5578
CA 17.1373 -19.434 70.6703
CA 25.7151 3.5457 39.1217
CA 13.1885 -22.333 45.6526
CA 21.0445 -10.1185 35.8172
CA 23.1967 -38.1951 41.7205
CA -5.23608 -30.0705 53.0991
CA 11.9243 0.837454 61.8749
CA 0.707586 -30.4475 50.901
CA 38.1302 6.19111 34.3055
CA 2.93068 -43.9764 48.6535
CA 11.0913 -24.5355 54.8264
CA 28.5353 -12.3588 64.26
CA 23.5073 -26.2581 40.6663
CA 9.44143 -33.6447 70.1812
CA 40.5896 0.0284574 36.7201
CA 28.5658 -27.4573 70.7208
CA 16.6798 5.33778 59.8701
CA 38.2925 -15.2774 60.0641
CA 29.5779 -14.1849 53.1021
CA 7.60849 2.08583 43.0948
CA -9.23192 -32.2808 53.8433
CA 21.6521 -13.1583 34.1174
CA 17.6623 -17.567 19.9854
CA 4.81698 -11.1601 77.7262
CA 18.4361 -9.8533 75.1199
CA 21.0871 -17.5572 24.4587
CA 20.8707 -12.1965 54.3184
CA 4.6465 -14.9604 12.2243
CA 38.3392 -8.26397 53.5642
CA 41.3184 2.38878 40.7313
CA 15.0329 -19.7451 68.6875
CA 36.562 -22.5469 61.3968
CA -10.3832 -30.7532 41.5913
CA 40.4231 7.8212 32.6444
CA 16.9564 11.6726 51.089
CA 6.11186 -14.5904 62.7879
CA 9.87747 -9.26064 57.5377
CA 23.4073 -31.538 64.8467
CA 19.5649 10.7942 39.4631
CA 8.0501 -36.2971 50.8554
CA 14.9803 -12.469 62.5461
CA 24.8603 -28.1112 42.6335
CA -2.13684 -19.3144 62.7578
CA 18.599 -6.36747 44.3008
CA 3.25396 -7.12086 11.2947
CA 28.5836 -18.4657 44.8827
CA 47.5846 -1.72247 45.9178
CA 44.5754 -7.32203 46.7009
CA 24.4288 -30.6379 71.0411
CA 31.0188 -6.50928 37.3457
CA 17.232 -18.4621 76.6068
CA 8.35944 -8.43362 44.1355
CA 25.9029 -25.409 34.3503
CA 19.5953 -19.9288 21.0474
CA 23.1858 6.61872 64.9343
CA 18.3393 -18.3517 78.7032
CA 30.997 -16.05 56.8577
CA 29.2279 -21.125 46.3992
CA 25.6549 -11.6889 47.7115
CA 36.7476 -28.2905 53.9432
CA 14.1971 -13.3991 27.166
CA 28.7446 -39.1119 53.8072
CA 2.59911 -9.78857 42.6507
CA 21.3493 -11.9516 50.449
CA 9.47324 -13.5704 53.5261
CA 1.15849 -10.0141 63.3143
CA 24.2247 -9.97907 65.1925
CA 35.6748 -29.9494 58.9401
CA -9.97287 -26.9624 45.5791
CA 31.5355 -22.9025 58.8727
CA 33.2962 5.9552 63.3021
CA 19.0326 -5.53076 38.7835
CA 30.1926 -37.7134 60.9665
CA 17.292 -21.3878 70.6218
CA 23.5838 5.64608 41.0678
CA 5.65525 -22.3198 81.5022
CA 10.2771 -12.0138 84.8347
CA 15.8327 -14.4973 74.6286
CA 25.3808 -23.8897 35.2646
CA 39.561 -25.4499 81.9107
CA 26.9374 9.81773 47.7184
CA 17.1101 -6.10288 39.5391
CA 8.77621 -8.38935 40.5817
CA 24.9506 -11.7936 65.7889
CA 17.2287 -2.44629 40.0134
CA 24.5457 11.8018 44.9638
CA -8.11485 -29.2481 55.0394
CA 16.2417 -25.589 76.7959
CA 8.14606 -12.5819 54.3805
CA 17.5146 -15.0646 71.9924
CA 41.9295 -17.6298 49.4565
CA 17.0427 -4.17499 77.1131
CA 13.2494 -13.2654 66.804
CA 11.0338 -24.5739 52.8532
CA 25.74 -11.7199 36.3623
CA 23.8377 -30.3285 58.3297
CA 14.112 -16.3485 70.8966
CA 20.5831 -14.8953 56.0827
CA 16.5989 -6.899 32.8243
CA 41.749 2.63081 38.9542
CA 17.247 -20.8479 81.5558
CA -5.61291 -19.7461 59.77
CA 1.73267 -18.0692 80.7865
CA 1.88097 -28.392 54.0588
CA 19.581 -17.353 20.312
CA 27.4223 -19.0145 40.7107
CA -1.58197 -10.8416 60.7161
CA 9.98687 -36.5118 71.6604
CA 18.9136 8.02777 41.7672
CA 31.1111 8.68176 51.9622
CA 5.57225 -8.8924 18.7709
CA 28.2502 6.60412 54.8354
CA 22.3276 0.782232 64.1963
CA 7.31523 -19.0021 46.4141
CA -2.3666 -10.3909 38.5962
CA 14.2208 -32.4225 44.6086
CA 7.89082 -8.41294 69.1189
CA 29.9401 -28.67 79.2288
CA 19.3438 -25.5086 38.5639
CA 21.0969 14.4229 42.3096
CA 31.3455 -20.2873 42.1247
CA 34.1741 -27.7272 57.4259
CA 4.88742 -14.0641 19.268
CA 17.4435 0.738339 48.426
CA 24.9091 -23.6227 33.5295
CA 11.6662 -39.1013 73.3865
CA 11.804 -29.7405 69.9152
CA 26.9107 -21.4193 45.0434
CA 15.2803 -30.2193 45.3186
CA 26.7349 -24.89 41.0218
CA 27.1496 -15.2027 35.0287
CA 21.4614 -11.0251 39.5958
CA 22.8532 5.93778 50.6826
CA -10.615 -24.4214 49.8803
CA 26.0659 -34.1853 38.6256
CA 10.0275 -33.9372 52.4169
CA 18.126 -6.61693 34.5351
CA 16.9929 -24.7601 49.1574
CA 9.69353 -17.203 13.1102
CA 9.51956 -15.0078 15.3125
CA 37.0696 -11.1166 61.7334
CA 35.4143 -23.1694 80.0141
CA 1.44477 -16.0101 49.6635
CA 20.3625 2.84704 51.2351
CA 30.2236 1.97622 71.1554
CA 8.43324 0.752316 48.4725
CA 10.4442 -20.5565 64.5629
CA 23.8369 -23.9613 41.7951
CA 27.5246 4.16857 40.0967
CA 12.414 -13.5881 46.6057
CA 5.84262 -21.0082 48.7569
CA 18.5234 -12.8162 47.5812
CA 23.9466 -9.33578 47.597
CA 26.5086 6.93809 37.8935
CA 27.6788 13.7421 47.4354
CA 27.8535 6.04742 46.5327
CA 18.655 -13.2536 41.5974
CA 3.19284 -2.01533 17.152
CA 34.348 -25.7313 73.2584
CA 3.01164 -18.7482 15.5505
CA 2.99782 -2.4928 46.4993
CA 12.4595 -28.963 71.9112
CA 14.8013 -16.8767 81.9439
CA 21.5604 -8.62262 41.9549
CA 0.828014 -14.6216 51.7674
CA 24.8219 8.73976 57.7175
CA 32.9034 -8.25228 49.6149
CA 21.2446 -13.3556 28.418
CA 16.2101 -11.14 47.6244
CA 31.3492 -19.032 50.3902
CA 28.2462 -34.2429 64.6471
CA 27.2062 -7.86632 42.0816
CA 30.4082 -12.6239 57.8328
CA -9.61166 -27.1047 50.837
CA 34.2645 -6.17324 53.0049
CA 46.3449 -3.32686 41.258
CA 30.405 -18.736 54.9796
CA 32.4854 -13.5677 38.1524
CA 10.9875 -36.2659 73.4348
CA 11.8666 -13.1239 81.9187
CA 23.0975 -24.0153 36.2285
CA 40.7676 -9.71844 52.7295
CA 12.4063 -27.5391 53.6936
CA 27.2211 -35.7415 35.2285
CA 35.6947 -16.3741 47.9562
CA 2.87564 -15.362 86.9328
CA 3.32377 -4.04532 3.99256
CA 25.795 -10.7865 30.8515
CA 21.6895 -15.1486 31.4109
CA 17.5369 -6.70619 80.5064
CA 49.772 -4.47438 48.7387
CA 15.4848 -15.065 43.5389
CA 18.2304 8.47452 39.8081
CA 17.2372 -4.8401 70.0369
CA -1.84714 -12.6674 62.3409
CA 2.1344 -38.5797 51.2705
CA 16.7965 -32.179 67.656
CA 26.6984 -14.9021 33.2521
CA 21.8277 -14.9703 68.7662
CA 16.6616 -27.2092 49.9924
CA -10.5838 -22.9757 61.084
CA 14.7343 -20.2978 61.1969
CA 5.81739 -29.8353 60.2974
CA 17.167 2.5713 47.2895
CA 13.8861 -21.2298 69.1664
CA 45.1965 4.56449 33.7783
CA 2.01266 -25.1186 82.4657
CA 10.3265 -9.63331 65.0256
CA 26.4198 6.09137 65.3712
CA 33.4831 -3.96468 40.292
CA -3.65814 -29.7487 55.2135
CA 17.6147 -31.8447 53.4968
CA 31.2407 5.16308 52.2144
CA 29.7976 -11.1007 66.0174
CA 33.0654 1.73102 39.3151
CA 26.7317 -6.80285 47.4782
CA 20.1969 8.46519 43.6444
CA 10.916 -36.7348 70.0403
CA 4.91957 -6.35404 14.2512
CA 1.49043 -11.2756 75.3401
CA 23.651 -13.9963 32.4118
CA 46.1701 -9.99458 47.3416
CA 29.6594 5.20523 67.348
CA 28.9251 -18.3338 62.071
CA 21.3951 -25.6912 31.8932
