489

CA 40.8096 -18.4533 46.4541
CA 20.5873 -11.5495 51.1178
CA -0.957473 -9.74564 41.9151
CA 28.4459 -21.7957 38.7666
CA 28.6715 -21.2576 60.9898
CA 40.9363 -4.14315 36.4071
CA 33.1348 8.96651 61.5498
CA 16.3008 -25.0332 42.1977
CA 9.45617 -1.89212 59.302
CA 24.6052 -30.4272 80.5234
CA 14.1846 -21.9103 43.3851
CA 23.2323 -10.3929 68.3766
CA 30.0888 7.71711 45.6801
CA 33.5247 5.04549 37.1981
CA 28.2755 8.85953 35.7934
CA 22.3091 -31.7954 58.4755
CA 31.2931 5.24252 36.3653
CA 11.4364 -3.33717 60.4433
CA 36.3492 -29.3177 60.6953
CA 5.13201 -47.8439 46.1852
CA -2.30047 -10.4952 13.2378
CA 13.5786 -9.52491 39.7164
CA 12.1272 -16.6753 15.105
CA 17.3059 -21.4186 40.0947
CA 14.1812 -22.7694 22.9087
CA 36.5282 -8.97579 57.447
CA 15.0987 -16.9131 84.9611
CA 21.7805 -12.1213 44.6829
CA 18.2596 -23.5238 67.699
CA 23.9759 -0.49928 43.6949
CA 4.1553 -13.6581 57.1168
CA 5.37916 -8.94766 12.539
CA -1.31732 -19.0586 48.9422
CA 31.9969 -24.8137 35.9638
CA 7.89561 -13.7813 85.3054
CA 32.4274 5.16614 56.7262
CA 1.15296 -25.3124 90.3975
CA 28.8273 -26.4751 76.8817
CA 24.9771 -11.8466 62.9115
CA -6.97814 -9.18324 36.8048
CA 15.7195 2.21598 52.6446
CA 14.2597 -2.75278 51.1049
CA 13.564 -9.63414 64.562
CA 26.4008 -2.16818 58.1737
CA 5.58682 -19.1511 77.0642
CA 30.8728 -37.4742 49.8835
CA 17.9484 -32.691 73.6881
CA 20.1943 0.383601 49.9124
CA 1.04917 -13.108 78.9928
CA 16.5768 -2.02567 45.1027
CA 29.5682 -25.5751 69.418
CA 28.0062 -20.2376 37.3015
CA 2.78813 -17.3743 63.9124
CA 23.733 -14.9613 29.6863
CA 38.2926 4.51528 37.8501
CA 35.0634 -7.88995 49.7615
CA 42.7786 -0.00564122 42.7643
CA 23.7842 7.12202 47.0934
CA 23.0791 1.61201 60.0293
CA 37.77 -21.8297 54.8373
CA 26.4215 -30.2549 61.7913
CA 13.0882 -11.6078 65.2922
CA 19.5502 -15.4075 35.802
CA 17.1958 -22.0471 43.7688
CA 28.7466 -17.9595 41.256
CA 10.3489 -16.2042 22.4094
CA 11.8101 -1.69262 59.1969
CA 3.06678 -18.9322 37.8443
CA -0.602143 -11.4751 37.6611
CA 1.4476 -11.6236 78.0387
CA 17.3447 -18.8481 81.7175
CA 30.5437 -11.4577 63.1699
CA 30.2436 12.6557 35.0435
CA -0.426386 -7.20458 54.2174
CA 14.9028 -15.2698 67.9652
CA 6.25939 -6.64797 43.1511
CA 3.91561 -25.4074 76.0439
CA 4.10149 -20.2861 50.4449
CA 27.2592 -14.6665 59.9421
CA 15.2798 -35.3681 61.8654
CA 25.6919 -32.8729 40.2096
CA 31.1128 -16.204 86.0131
CA 5.23952 -11.4493 45.8534
CA 29.9429 -19.7043 44.0977
CA 33.7791 -5.59194 42.4452
CA 29.6316 -6.05073 54.4835
CA 16.0689 -8.29376 43.9228
CA 26.6796 -29.1117 29.9738
CA 32.5272 9.30034 35.4298
CA -0.522994 -10.8307 66.5786
CA 5.60323 -11.7817 56.3703
CA 1.05178 -16.7914 82.4081
CA 10.4479 -11.963 53.0625
CA 34.3346 -1.43782 38.8041
CA 35.0455 -25.582 63.9832
CA 9.37017 -8.05168 63.5234
CA 30.4092 2.83441 38.9449
CA 26.1571 8.04699 51.579
CA 17.4971 -14.6629 51.7862
CA 17.733 -25.2295 69.1864
CA 12.8589 -19.4315 11.6913
CA 20.5474 -16.5836 38.4923
CA 34.4292 -21.4337 64.2413
CA 19.7511 -22.7657 38.6689
CA 32.525 -19.2235 51.4776
CA 33.6433 -20.8039 81.9849
CA 36.7389 0.863055 38.5849
CA -0.783316 -8.92917 61.8347
CA 24.4364 -34.5212 63.0391
CA 20.4021 -26.2537 28.0221
CA 6.2743 -15.9671 82.3475
CA 37.85 5.31305 40.0719
CA 32.869 -17.9728 82.5928
CA 16.1723 -19.764 74.0347
CA 0.00870458 -46.6349 48.2865
CA 42.3748 -15.4764 57.6209
CA 2.24574 -21.553 78.3548
CA 3.15725 -10.4708 10.0779
CA 5.54463 -11.6476 15.4947
CA 7.85129 -31.667 51.5881
CA 35.5877 -3.61805 43.6179
CA -1.93103 -41.836 48.2245
CA 31.5766 -14.9282 42.636
CA 23.5318 -28.7139 74.0632
CA 30.5723 -23.1286 80.7169
CA 5.90865 -40.7943 52.2336
CA 15.2938 -12.2132 82.0535
CA -2.22996 -10.9256 36.7324
CA 10.7251 -3.96136 53.8772
CA 33.0493 1.11437 42.8826
CA 9.99866 -18.2622 46.5635
CA 30.3809 -9.93235 37.1282
CA 13.3983 -30.7242 50.7212
CA 35.0053 -24.9405 50.9415
CA -3.20655 -18.8931 59.1953
CA 25.359 -0.504802 48.0412
CA 11.5576 -12.007 44.4029
CA 25.2652 -17.5624 53.6965
CA 9.81148 -29.7652 52.6917
CA 24.2424 -26.2652 59.2611
CA 0.98883 -9.77055 15.6343
CA 26.2795 10.4603 34.7278
CA 5.48314 -38.2476 47.8856
CA 17.6359 -15.6503 35.5032
CA 26.4585 -8.9174 50.2763
CA 14.7446 -2.89552 56.8215
CA 23.4423 -32.9196 57.1783
CA 2.84118 -12.9615 77.5741
CA -9.28678 -29.082 48.6532
CA 24.4348 6.99697 40.9305
CA 43.4499 2.8598 39.8853
CA 9.81094 -26.1932 71.4389
CA 14.7092 -12.6064 73.9553
CA 21.1803 -32.7513 62.3729
CA 23.8646 1.14849 57.6769
CA 28.3272 -0.268974 59.2605
CA 47.2809 -5.95523 46.6101
CA 0.845231 -10.2971 55.3881
CA 0.8948 -20.815 49.783
CA 8.56619 -8.24504 41.2928
CA 8.14392 -17.7955 80.1006
CA 29.143 0.387414 64.4242
CA 3.33571 -22.2205 52.3975
CA 25.4355 7.60897 59.3201
CA 23.9865 4.6163 42.2883
CA -3.51966 -13.4419 39.2296
CA 23.6455 -33.023 65.9741
CA 2.22856 -8.1304 53.564
CA -4.032 -28.938 52.9348
CA 34.0923 -18.6351 50.3071
CA 35.6592 -26.24 81.1728
CA 5.6907 -14.4873 62.4557
CA 5.75542 -9.06194 58.3086
CA -5.89436 -16.7474 38.8009
CA 21.9867 -17.7986 36.3231
CA 6.07262 -4.43924 63.0622
CA 14.2465 -7.93001 74.5282
CA 34.3523 -24.6822 57.9295
CA 28.0825 -30.8557 63.0019
CA 31.7298 -19.197 40.0631
CA 24.031 11.925 36.4944
CA 35.5571 -6.43283 42.1644
CA 3.33682 -13.443 75.3209
CA 31.7269 -19.5349 53.1698
CA 6.08178 -7.98446 41.1903
CA 35.4228 -10.1301 39.9365
CA 31.2805 1.4976 66.6073
CA 5.76215 -7.06005 63.7632
CA -0.718238 -13.2219 41.3249
CA 32.6107 6.06133 45.5204
CA 13.015 2.40239 55.7422
CA 26.2024 -35.8458 51.793
CA 7.68054 -11.2733 47.904
CA 15.9799 -31.1534 40.9576
CA 36.1019 6.13887 48.2945
CA 14.2744 -13.311 61.8595
CA 26.4225 -24.1036 36.5837
CA 35.8269 -36.4427 57.921
CA 25.5592 -18.2739 39.4764
CA 27.754 11.802 48.3557
CA 11.2102 -18.8645 68.7315
CA 27.9038 -26.4452 61.2383
CA 18.6142 -20.9043 79.9255
CA 30.4224 -3.1551 65.7113
CA 15.6917 -28.8427 40.7224
CA 33.3364 6.79495 54.8665
CA 9.75827 -3.09631 51.4701
CA 16.3059 -19.987 20.4229
CA 36.2302 -19.9596 49.3724
CA 29.6629 -16.3396 57.1621
CA 16.7165 -7.72301 75.4933
CA 15.1264 2.02272 59.8457
CA 15.5147 -9.69061 68.4695
CA 38.0732 -2.68387 37.7203
CA 18.4527 -0.272362 59.8506
CA 4.88916 -22.6613 41.9799
CA 27.4685 -40.5955 59.2118
CA 33.7301 -9.47314 51.6546
CA 23.2755 9.51742 48.0164
CA 2.25277 -40.3303 47.4188
CA 15.1155 -32.1312 58.7595
CA 9.66036 -34.2191 50.8982
CA 35.2305 -6.08573 38.203
CA 27.8539 -32.5211 58.0724
CA 42.5661 -13.2773 55.8194
CA 27.5349 -36.2576 54.0718
CA 26.5481 -27.449 32.6808
CA 6.81244 -51.0789 49.44
CA 29.3247 -13.4477 54.8282
CA 25.238 -26.7935 36.6019
CA 44.2738 -17.6701 56.4688
CA 1.94449 -15.6754 60.1187
CA 11.9042 -26.6322 71.796
CA 32.3462 -21.5634 44.1095
CA 21.9648 -16.1215 26.5441
CA 13.6021 -16.1945 18.1967
CA 13.4646 1.12393 53.653
CA 19.1987 -14.3125 67.2853
CA 35.533 -11.237 36.0261
CA 31.2988 -43.3244 56.394
CA 20.2963 -28.5373 71.586
CA 28.5578 -22.3996 41.6437
CA 26.4347 9.18908 29.9509
CA 36.9762 -14.0235 48.7732
CA -1.69723 -11.5592 63.9778
CA 4.46139 -5.46802 61.7188
CA 34.4497 -13.6566 41.6771
CA 41.5369 -17.3189 52.5801
CA -0.700377 -9.39433 14.545
CA 47.7361 -3.59015 42.6864
CA -10.6367 -25.4839 57.1296
CA 44.3904 -16.9233 51.7711
CA 5.54213 -27.6862 53.2424
CA 20.8959 -25.7137 72.2471
CA -8.58395 -23.9527 53.6889
CA 30.0007 -9.17187 50.4651
CA 20.749 -27.5348 68.5574
CA 33.6129 -1.13625 32.904
CA 5.54892 -9.78522 78.9722
CA 33.6303 -15.148 45.9475
CA 32.4653 -22.7769 77.7247
CA 12.4872 -17.6464 77.559
CA 30.9976 15.2208 47.9057
CA 9.04117 -31.0349 69.1075
CA 25.8359 -20.6171 42.8326
CA 15.8962 -27.1481 57.8269
CA 5.37668 -42.0652 44.799
CA 34.2898 -26.0641 70.1537
CA 22.0283 1.0062 53.333
CA 30.586 -20.8546 50.6109
CA 18.2228 -12.6313 60.9958
CA 17.8329 -13.5028 76.3329
CA 36.2853 -18.9439 76.0571
CA 4.39712 -16.3536 60.8114
CA 24.6127 -13.6364 28.1534
CA 36.6763 -10.9012 54.1514
CA 22.8827 -13.097 29.682
CA 8.37268 -37.451 48.6312
CA 40.5896 0.0284574 36.7201
CA 28.3102 -21.9562 68.4895
CA 30.3925 -37.3203 61.7957
CA 34.1361 -16.7167 42.8101
CA 23.6181 -4.98161 59.6745
CA 14.2723 -16.3425 78.505
CA 15.118 -3.80643 73.4656
CA 21.6521 -13.1583 34.1174
CA 23.4962 -0.95091 56.8602
CA 11.3556 -28.1676 58.1298
CA 6.12438 -13.1934 40.7002
CA 21.0871 -17.5572 24.4587
CA 11.1077 -24.8075 43.2009
CA 32.636 -10.8396 56.4186
CA 38.3392 -8.26397 53.5642
CA 19.1117 -25.2421 44.4993
CA 34.1819 -29.2393 63.1964
CA 35.8522 -22.4979 56.3169
CA 15.3296 -25.3163 67.5215
CA -5.88035 -29.733 50.6179
CA 20.9721 -18.4158 81.3456
CA 25.6569 0.368838 60.5731
CA 9.87747 -9.26064 57.5377
CA 8.82257 -14.1277 64.4618
CA -7.03133 -26.5732 58.1489
CA 32.5445 -10.3118 50.2015
CA 28.4421 -12.6936 47.8754
CA 24.8603 -28.1112 42.6335
CA 24.8297 -23.0536 56.5892
CA 9.02489 -12.3178 43.9862
CA 3.25396 -7.12086 11.2947
CA 35.1844 -25.6244 43.1288
CA 47.5846 -1.72247 45.9178
CA 24.9544 1.50387 44.7464
CA 7.60541 -30.4725 50.1876
CA 8.30467 -13.7513 48.3203
CA 38.2212 -20.6861 57.6021
CA 3.31304 -20.0209 42.9688
CA 16.2738 -29.9865 73.1726
CA 32.0008 0.576289 39.4946
CA 8.85872 -10.9295 55.9932
CA 26.9379 11.2064 27.8652
CA 14.881 -17.7985 71.778
CA 29.2279 -21.125 46.3992
CA 25.6556 -31.833 62.7738
CA 31.2372 -41.1459 53.2754
CA 15.3037 -19.7618 43.1031
CA 28.7446 -39.1119 53.8072
CA 7.09416 -35.3051 53.1745
CA 33.3775 -25.1072 52.9637
CA 1.00682 -16.0016 77.2046
CA 27.9464 -20.2703 34.2542
CA 4.5646 -15.7686 77.7219
CA 4.20396 -8.09172 60.6161
CA 22.647 2.11003 47.6379
CA 17.2239 -29.7526 57.7039
CA 33.2962 5.9552 63.3021
CA 14.1736 -11.7958 57.3156
CA 21.0436 -20.7542 78.8265
CA 6.12623 -24.3054 72.6623
CA 21.0851 -19.7722 85.3508
CA 5.65525 -22.3198 81.5022
CA 36.3139 -26.7412 69.12
CA 27.3896 -18.4539 32.9313
CA 2.15111 -9.98509 58.2792
CA 39.561 -25.4499 81.9107
CA 0.427366 -24.0314 84.6442
CA 17.1101 -6.10288 39.5391
CA 35.3606 -3.10388 39.5245
CA 27.5408 -30.2926 78.0523
CA 25.2747 -14.7482 50.6936
CA 36.8088 -7.02321 52.5133
CA -8.11485 -29.2481 55.0394
CA 26.111 7.71939 39.9847
CA 6.66376 -21.5416 60.6159
CA 17.5146 -15.0646 71.9924
CA 21.5296 8.70441 61.9387
CA 33.8859 -7.4003 52.5226
CA 18.859 -3.90129 36.8806
CA 35.8992 -1.11511 43.618
CA 30.7234 -37.8957 56.2979
CA 4.74943 -14.3792 79.2722
CA 23.1613 -17.1599 48.0478
CA 19.4539 -36.1139 62.7817
CA 38.5012 -19.515 78.9823
CA 39.586 -19.8562 55.3508
CA 31.2825 -0.750786 37.8562
CA -5.61291 -19.7461 59.77
CA 1.73267 -18.0692 80.7865
CA 27.5851 -17.7779 57.4191
CA 19.581 -17.353 20.312
CA 17.3386 7.75825 47.6465
CA 28.5796 -10.7413 36.9209
CA 25.7952 -3.45331 50.9312
CA 45.9955 0.802014 46.9195
CA 27.2483 -17.9174 35.9458
CA 16.402 -32.184 49.0355
CA 28.2502 6.60412 54.8354
CA 22.3276 0.782232 64.1963
CA 7.31523 -19.0021 46.4141
CA -2.3666 -10.3909 38.5962
CA 24.4456 -0.142636 53.1278
CA 29.7642 -26.069 73.6185
CA 29.9401 -28.67 79.2288
CA 21.4781 -12.9322 31.6886
CA 47.8193 2.08113 46.5723
CA 31.3455 -20.2873 42.1247
CA -2.7639 -31.6912 56.3946
CA 11.0801 -7.88409 57.2397
CA 17.4435 0.738339 48.426
CA 26.0118 -31.5531 41.7288
CA 31.3907 3.75824 54.8317
CA 28.0777 -16.027 37.941
CA -0.970954 -25.8503 86.3273
CA 28.4411 -17.8675 38.9698
CA 28.2849 -23.6649 69.1544
CA 12.4513 -27.8303 49.5005
CA 29.9251 -25.0744 35.0012
CA 18.0025 -31.1112 60.7322
CA 15.9304 -15.7518 60.0323
CA 11.3053 -30.3959 60.2513
CA 3.46591 -32.9637 53.6023
CA 22.3834 11.0453 63.4339
CA 17.2561 -11.409 62.5187
CA 30.0481 3.38755 66.9142
CA 9.51956 -15.0078 15.3125
CA 37.0696 -11.1166 61.7334
CA 35.4143 -23.1694 80.0141
CA 32.8377 -37.644 55.4045
CA 7.01696 -20.8663 48.0342
CA 4.17049 -8.2137 62.8776
CA 8.43324 0.752316 48.4725
CA -8.01055 -21.361 55.7509
CA 38.2735 -15.4933 47.1516
CA -3.50146 -12.5058 34.7393
CA 2.99342 -12.8913 44.7911
CA 28.2401 -8.57932 45.5859
CA 27.3793 -12.3459 37.5756
CA 21.3212 -15.2246 42.5761
CA 28.4829 -32.5984 66.7948
CA 30.735 -35.8527 58.2262
CA 38.9286 -15.4025 61.9325
CA 3.67016 -5.72896 59.687
CA 3.19284 -2.01533 17.152
CA 29.0188 -33.0909 55.7741
CA 6.77527 -15.3038 85.796
CA 2.75721 -13.898 58.9197
CA 12.4595 -28.963 71.9112
CA 9.72288 -20.129 68.2032
CA 29.1458 -26.0701 59.8658
CA -2.00862 -17.8648 50.3048
CA 41.0271 5.262 39.7081
CA 34.7522 -24.539 83.9562
CA 8.05311 3.81092 47.6564
CA 29.9923 -13.6649 58.9409
CA 30.5769 -2.95926 44.0103
CA 16.8195 -10.7415 79.5699
CA 32.1407 -24.9365 73.2473
CA 33.5193 -22.6242 84.2682
CA -9.61166 -27.1047 50.837
CA 37.6747 -23.9358 49.9207
CA 20.2132 -8.65363 69.3627
CA 30.5746 -40.1542 57.8721
CA 32.4854 -13.5677 38.1524
CA 29.6565 -7.78915 46.5947
CA 0.957237 -16.1363 35.3029
CA 20.9239 -28.7713 45.2972
CA 9.96597 -10.0882 45.0613
CA 12.4063 -27.5391 53.6936
CA 37.5788 -23.0461 80.0503
CA -5.01017 -14.0442 32.9272
CA 18.8832 2.20316 52.9148
CA 25.5269 -33.146 61.2939
CA 23.2617 -35.2871 61.5189
CA 12.7876 -3.64418 53.1076
CA 42.328 -19.2243 57.7364
CA 13.4161 -25.8026 55.0816
CA 43.5109 -22.9637 81.9974
CA 18.2304 8.47452 39.8081
CA 2.99441 -19.2178 82.0168
CA 12.1372 -27.4725 44.5435
CA 2.1344 -38.5797 51.2705
CA 10.6758 -25.8769 56.2159
CA 19.491 12.0792 43.2612
CA 15.4316 12.1017 41.4329
CA 18.5893 10.0294 58.8509
CA 23.4476 -4.92561 34.948
CA 26.2366 -29.9163 56.0777
CA 0.794423 -29.7631 53.8594
CA 39.504 -4.2515 39.9032
CA 15.3347 -29.0379 58.8309
CA 18.3804 -12.6778 44.0359
CA 2.01266 -25.1186 82.4657
CA 7.2873 -21.5062 52.3508
CA 26.2937 -20.3242 39.6196
CA 33.4831 -3.96468 40.292
CA 31.3712 -32.2867 57.8772
CA 27.7375 -13.7844 64.4667
CA -1.57143 -9.17995 65.6303
CA 36.9661 4.77024 46.1395
CA 34.2301 7.51991 33.1142
CA 20.3535 -11.7127 29.9031
CA 20.1969 8.46519 43.6444
CA 17.5071 -13.549 28.4364
CA 4.91957 -6.35404 14.2512
CA 26.0428 -4.90324 49.574
CA 27.4463 -26.0975 31.756
CA 3.06135 -11.5899 46.4503
CA 11.3513 -33.9422 74.6166
CA 8.09676 -16.3412 45.1369
CA 21.3951 -25.6912 31.8932
