489

CA 2.19778 -15.2879 63.775
CA 17.2544 -20.3508 36.7682
CA 26.7494 -28.8951 60.0903
CA 40.1179 -17.801 59.3309
CA 28.6715 -21.2576 60.9898
CA 40.9363 -4.14315 36.4071
CA 33.1348 8.96651 61.5498
CA 16.3008 -25.0332 42.1977
CA 26.1744 -23.6529 63.066
CA 37.1189 -18.0183 36.5188
CA 14.1846 -21.9103 43.3851
CA 16.0074 -13.479 39.6106
CA 33.4498 -11.305 39.8349
CA 33.5247 5.04549 37.1981
CA 28.6694 9.75872 40.6584
CA 37.8451 -5.31243 38.7129
CA 14.9652 -21.7328 39.4916
CA 11.4364 -3.33717 60.4433
CA 36.3492 -29.3177 60.6953
CA 5.13201 -47.8439 46.1852
CA 31.9648 -28.401 34.5315
CA 17.5809 -23.2365 43.2898
CA 12.1272 -16.6753 15.105
CA 17.3059 -21.4186 40.0947
CA -2.80753 -16.8243 38.5779
CA 36.5282 -8.97579 57.447
CA 15.0987 -16.9131 84.9611
CA 21.7805 -12.1213 44.6829
CA 32.8253 -18.4735 72.2303
CA 29.3907 -29.8996 59.5281
CA 28.0432 -11.3608 61.0612
CA 4.01973 -21.121 41.5524
CA -1.31732 -19.0586 48.9422
CA 12.4234 -17.9909 66.2363
CA 32.7844 7.37187 60.5343
CA 32.4274 5.16614 56.7262
CA 15.3166 -2.50791 47.4311
CA 28.8273 -26.4751 76.8817
CA 32.5987 -6.79442 46.764
CA 8.22515 -12.4213 42.0161
CA 16.6523 -5.2754 75.8996
CA 26.0001 -13.2087 59.7866
CA 13.564 -9.63414 64.562
CA 22.4408 -14.486 25.0345
CA 31.1037 -23.2532 73.1731
CA 30.8728 -37.4742 49.8835
CA 22.5518 -14.4075 67.724
CA -0.521668 -17.5506 36.4457
CA 40.3856 -18.5446 43.646
CA 16.5768 -2.02567 45.1027
CA -0.867245 -24.0198 55.8691
CA 10.3625 -17.4464 50.9938
CA 37.9018 -19.8383 42.9808
CA 10.8308 -28.4347 55.3559
CA 6.48454 -13.9555 58.6976
CA 42.9043 -18.3911 50.6409
CA 20.18 -23.3702 32.5986
CA 40.9211 -14.0182 57.7054
CA 12.0161 -10.0795 70.8243
CA 6.1428 -17.624 51.0149
CA -3.45677 -10.0701 40.385
CA 32.0865 -38.5941 58.9485
CA 19.5502 -15.4075 35.802
CA 29.7866 -21.8076 46.1925
CA 20.6079 -16.5641 44.322
CA 18.4065 9.45941 43.5916
CA 11.8101 -1.69262 59.1969
CA 3.06678 -18.9322 37.8443
CA -0.602143 -11.4751 37.6611
CA 21.2295 4.06804 50.642
CA 17.3447 -18.8481 81.7175
CA 24.9021 -23.5217 48.1923
CA 30.2436 12.6557 35.0435
CA 23.1399 5.88117 59.5047
CA 14.9028 -15.2698 67.9652
CA 7.84801 5.03373 49.6652
CA 3.91561 -25.4074 76.0439
CA 1.62934 -25.1249 77.6837
CA 12.8717 -20.2086 82.2261
CA 26.8507 -9.52244 39.6239
CA 25.6919 -32.8729 40.2096
CA 31.1128 -16.204 86.0131
CA 40.7186 -7.22939 42.2519
CA 29.9429 -19.7043 44.0977
CA 14.4224 -9.84761 43.1988
CA 10.5095 -7.13726 39.8653
CA 16.0689 -8.29376 43.9228
CA 26.6796 -29.1117 29.9738
CA 1.17082 -29.0874 73.8371
CA 4.33214 -41.5127 49.2132
CA -8.38912 -26.0442 52.3962
CA 46.2526 -2.62148 50.0606
CA 10.4479 -11.963 53.0625
CA 34.3346 -1.43782 38.8041
CA 30.4136 -13.7624 34.4942
CA 9.37017 -8.05168 63.5234
CA 37.2067 10.5467 36.2706
CA 26.1571 8.04699 51.579
CA 41.7793 -16.9801 44.593
CA 17.733 -25.2295 69.1864
CA 20.8143 1.15581 42.11
CA 9.07029 -19.1119 75.9099
CA 31.6411 -8.53471 38.6452
CA 19.7511 -22.7657 38.6689
CA 15.4201 7.70191 48.0724
CA 33.6433 -20.8039 81.9849
CA 36.7389 0.863055 38.5849
CA -0.783316 -8.92917 61.8347
CA 15.1993 -9.06227 62.9106
CA 40.2866 -22.9246 81.9582
CA 33.0627 8.74086 57.474
CA 25.0969 7.86581 62.635
CA 32.869 -17.9728 82.5928
CA 4.90848 -37.2875 52.5896
CA 0.00870458 -46.6349 48.2865
CA 42.3748 -15.4764 57.6209
CA 2.24574 -21.553 78.3548
CA 15.4791 3.83854 52.9912
CA 5.54463 -11.6476 15.4947
CA 19.6743 -4.93341 41.6987
CA 35.5877 -3.61805 43.6179
CA -1.93103 -41.836 48.2245
CA 31.5766 -14.9282 42.636
CA 29.1348 -9.84406 33.7491
CA 16.396 0.0422503 58.884
CA 25.3446 -31.6536 66.0867
CA 15.2938 -12.2132 82.0535
CA -2.22996 -10.9256 36.7324
CA 35.254 -7.85895 31.3528
CA 25.4632 -2.58416 59.8116
CA 50.755 -4.11745 44.5379
CA 30.3809 -9.93235 37.1282
CA 10.1981 -30.7099 72.2633
CA 35.0053 -24.9405 50.9415
CA -3.20655 -18.8931 59.1953
CA 21.104 -8.43305 58.2752
CA 7.1335 -21.4 42.8055
CA 35.677 -14.3518 45.3005
CA 9.81148 -29.7652 52.6917
CA 24.2424 -26.2652 59.2611
CA 0.98883 -9.77055 15.6343
CA 15.6445 -2.80138 43.7683
CA 29.9678 -18.5881 41.2811
CA 17.6359 -15.6503 35.5032
CA 26.4585 -8.9174 50.2763
CA 12.0262 0.326681 55.1507
CA 22.1225 7.13212 39.9619
CA 27.4485 -21.8015 47.8033
CA -9.28678 -29.082 48.6532
CA 24.4348 6.99697 40.9305
CA 43.4499 2.8598 39.8853
CA -0.896153 -27.5635 58.746
CA 12.1412 -26.8948 72.1467
CA 21.1803 -32.7513 62.3729
CA 23.8646 1.14849 57.6769
CA 28.3272 -0.268974 59.2605
CA 47.2809 -5.95523 46.6101
CA 0.845231 -10.2971 55.3881
CA 4.56732 -2.25942 61.0434
CA 10.8448 -15.7978 82.9438
CA 8.14392 -17.7955 80.1006
CA 19.925 -32.0935 71.6719
CA 3.33571 -22.2205 52.3975
CA 25.4355 7.60897 59.3201
CA 32.0781 -0.39911 44.2142
CA -3.51966 -13.4419 39.2296
CA 21.9742 -6.02414 34.7947
CA 35.4028 -0.585394 34.0129
CA 15.7049 11.9639 47.4639
CA 31.4416 -29.0687 72.0029
CA 35.6592 -26.24 81.1728
CA 2.57106 -4.49447 59.6673
CA 5.75542 -9.06194 58.3086
CA 22.9004 -27.5681 71.0643
CA 2.84042 -16.6368 83.2934
CA -0.500048 -26.2018 81.1309
CA 14.2465 -7.93001 74.5282
CA 34.3523 -24.6822 57.9295
CA 22.1997 -33.5204 39.0658
CA 31.7298 -19.197 40.0631
CA -2.9771 -22.4162 85.2585
CA 35.5571 -6.43283 42.1644
CA 11.0299 -38.2673 77.2607
CA 31.7269 -19.5349 53.1698
CA 6.08178 -7.98446 41.1903
CA 28.1359 -19.6819 50.976
CA 29.8285 8.2462 36.4693
CA 32.6561 6.99957 56.5792
CA 1.89043 -13.3793 42.8042
CA 32.6107 6.06133 45.5204
CA 13.015 2.40239 55.7422
CA 21.4672 -23.2958 36.9099
CA 33.8417 -16.4692 45.0982
CA 37.8499 -9.26536 52.4081
CA 25.1407 -15.3323 39.104
CA 10.6489 2.759 52.5998
CA 36.6486 -13.4218 61.6243
CA 25.3613 8.09719 53.442
CA 29.8886 -11.5654 65.8215
CA 27.754 11.802 48.3557
CA 11.2102 -18.8645 68.7315
CA 27.9038 -26.4452 61.2383
CA 19.0201 -9.01371 66.8568
CA 30.4224 -3.1551 65.7113
CA 15.6917 -28.8427 40.7224
CA 33.3364 6.79495 54.8665
CA 28.6323 -32.5464 60.4002
CA 16.3059 -19.987 20.4229
CA 47.3862 -13.4944 53.526
CA 23.2746 3.06292 53.4541
CA 34.0569 -37.0293 58.4565
CA 15.1264 2.02272 59.8457
CA 15.5147 -9.69061 68.4695
CA 0.169598 -17.3335 50.9244
CA 7.09703 -11.0751 10.6759
CA 10.9697 -20.0664 71.4011
CA 10.3467 -19.8823 43.6459
CA 9.58467 -17.2373 19.183
CA 23.2755 9.51742 48.0164
CA 23.8884 -5.22662 51.6957
CA -0.366384 -7.30522 36.0458
CA 30.3605 -38.0217 59.8423
CA 35.2305 -6.08573 38.203
CA 27.8539 -32.5211 58.0724
CA 30.5089 -19.7121 46.7831
CA 26.3096 -9.75905 69.7856
CA 26.5481 -27.449 32.6808
CA 13.8192 0.323252 62.7821
CA 41.7845 -20.4342 43.9254
CA 25.238 -26.7935 36.6019
CA 6.21946 -31.1417 53.0308
CA 27.6165 -24.5824 71.0271
CA 16.8883 -6.04476 34.7403
CA 3.8447 -13.9416 86.5144
CA -2.94818 -26.174 59.3607
CA 13.6021 -16.1945 18.1967
CA 19.19 -23.4134 66.1462
CA 26.6756 -38.0868 56.1707
CA 13.0601 -7.78629 58.7494
CA -2.9179 -25.5138 52.8982
CA 20.2963 -28.5373 71.586
CA 34.59 -12.6068 40.4025
CA 38.6243 -10.6742 41.6691
CA 36.9762 -14.0235 48.7732
CA 17.8767 -22.2706 36.6725
CA 4.46139 -5.46802 61.7188
CA 31.1088 -26.3404 60.1098
CA 41.5369 -17.3189 52.5801
CA 34.6679 4.20156 66.1993
CA 33.8869 -5.87595 59.1223
CA 28.6734 -6.68136 48.9094
CA 44.3904 -16.9233 51.7711
CA 26.7956 -25.3199 30.9967
CA 20.8959 -25.7137 72.2471
CA -3.15905 -17.1392 31.544
CA 28.2116 0.218733 49.642
CA 20.749 -27.5348 68.5574
CA 33.6129 -1.13625 32.904
CA 20.2819 -37.4894 60.1203
CA 29.8651 -15.0064 39.2079
CA 32.4653 -22.7769 77.7247
CA 12.4872 -17.6464 77.559
CA 30.9976 15.2208 47.9057
CA 9.04117 -31.0349 69.1075
CA 27.0628 -19.6323 48.3892
CA -0.4373 -39.5813 47.0389
CA 46.9045 -2.50163 47.9108
CA 15.9593 -25.477 72.7964
CA 22.0283 1.0062 53.333
CA 30.586 -20.8546 50.6109
CA -4.91167 -10.7807 36.322
CA 34.2317 11.1979 36.2786
CA 36.2853 -18.9439 76.0571
CA 38.5158 -24.1237 83.9071
CA 13.288 -19.0727 45.2077
CA 34.6627 -9.43888 35.0414
CA 46.8812 4.25726 50.4601
CA 36.7778 -16.8953 64.4021
CA 40.5896 0.0284574 36.7201
CA 28.3102 -21.9562 68.4895
CA 30.3925 -37.3203 61.7957
CA 34.1361 -16.7167 42.8101
CA 23.6181 -4.98161 59.6745
CA 25.2638 -17.3335 36.9623
CA -2.06079 -13.0206 65.3622
CA 29.246 -3.21809 52.7312
CA 22.6994 -31.7196 74.5387
CA 26.8931 -9.70252 64.063
CA 26.5919 10.2341 41.7882
CA 0.228558 -23.5789 77.8931
CA 35.3297 1.18703 47.2611
CA 22.2547 10.2999 57.4765
CA 20.0402 -14.638 26.9917
CA -0.894543 -9.1113 10.7084
CA 21.0537 -29.6578 36.8572
CA 9.28983 -30.293 48.6421
CA 2.63034 -12.3451 58.9035
CA 5.6332 -18.6672 57.7142
CA 20.9721 -18.4158 81.3456
CA -9.32382 -19.2732 58.1645
CA 9.87747 -9.26064 57.5377
CA 24.868 -30.6933 72.0246
CA 28.5618 -21.7456 39.9448
CA 34.8553 -15.2755 39.2743
CA 31.4709 -34.1781 60.5982
CA 14.2202 -5.1813 40.4298
CA 24.8297 -23.0536 56.5892
CA 9.02489 -12.3178 43.9862
CA -1.48422 -7.93208 51.7349
CA 0.765567 -26.1316 47.3958
CA 47.5846 -1.72247 45.9178
CA 30.5151 -7.25329 50.9668
CA -0.877975 -16.3936 65.5661
CA 31.6931 -0.768488 36.7727
CA 42.3444 -16.9592 54.5466
CA 37.4372 -1.48578 32.1215
CA 16.2738 -29.9865 73.1726
CA 32.0008 0.576289 39.4946
CA 17.1661 -9.09918 67.0576
CA 26.792 -0.0489995 64.5612
CA 14.881 -17.7985 71.778
CA 37.039 -9.80311 45.5274
CA 25.6556 -31.833 62.7738
CA 29.2797 7.18884 58.2274
CA 30.3551 -20.8901 68.8752
CA 28.7446 -39.1119 53.8072
CA 0.508965 -8.82502 65.3922
CA 33.3775 -25.1072 52.9637
CA 2.47463 -12.3005 11.5686
CA 18.3666 -3.12442 58.135
CA 32.0162 7.43944 53.415
CA 23.7556 -22.0339 51.7204
CA 19.8719 4.20514 44.8484
CA 32.5441 -14.7099 55.423
CA 28.0728 -18.2944 63.3396
CA 10.5116 -13.8583 43.9713
CA 14.6679 -14.0653 76.3157
CA 2.05423 -16.7181 58.9583
CA 21.0851 -19.7722 85.3508
CA 5.65525 -22.3198 81.5022
CA 39.8842 1.48605 43.3731
CA 5.02968 -10.2299 61.983
CA 17.2022 1.63549 54.4192
CA 39.561 -25.4499 81.9107
CA 0.427366 -24.0314 84.6442
CA 17.1101 -6.10288 39.5391
CA 6.61988 -38.9513 48.4846
CA 27.5408 -30.2926 78.0523
CA 25.2747 -14.7482 50.6936
CA 36.8088 -7.02321 52.5133
CA -8.11485 -29.2481 55.0394
CA 26.111 7.71939 39.9847
CA 33.3834 2.71374 38.4949
CA 17.5146 -15.0646 71.9924
CA 21.5296 8.70441 61.9387
CA 37.8382 1.54966 66.1343
CA 18.859 -3.90129 36.8806
CA 35.8992 -1.11511 43.618
CA 30.7234 -37.8957 56.2979
CA 36.7503 -22.7717 84.0276
CA 23.1613 -17.1599 48.0478
CA 10.0502 -20.2161 52.2644
CA 24.0751 -3.70724 61.5247
CA 41.3188 -15.337 45.9374
CA 24.2138 -11.335 64.6023
CA -5.61291 -19.7461 59.77
CA 22.6187 -8.36443 60.9775
CA 27.5851 -17.7779 57.4191
CA 19.581 -17.353 20.312
CA 9.77933 -23.7815 41.0445
CA 28.5796 -10.7413 36.9209
CA 25.7952 -3.45331 50.9312
CA 45.9955 0.802014 46.9195
CA 27.2483 -17.9174 35.9458
CA 2.41035 -18.3805 50.8852
CA 18.3427 -33.4808 57.1718
CA 22.3276 0.782232 64.1963
CA 22.4378 -15.8881 34.2221
CA 8.10481 -14.7862 46.4264
CA 23.4734 -1.48227 52.4228
CA 29.7642 -26.069 73.6185
CA 29.9401 -28.67 79.2288
CA 21.4781 -12.9322 31.6886
CA 38.0979 0.124222 43.3766
CA 12.2694 -6.5761 52.6292
CA -2.7639 -31.6912 56.3946
CA 31.8128 -15.767 38.2949
CA 15.4609 -4.37496 44.7317
CA 42.5264 -15.1787 50.9521
CA 36.3812 -19.2694 39.8867
CA 28.0777 -16.027 37.941
CA 25.5428 9.47633 37.4984
CA 28.4411 -17.8675 38.9698
CA 21.6952 -7.49341 31.8495
CA -2.23982 -16.8224 81.3814
CA 47.2424 -16.2982 52.9925
CA 30.4271 -4.75106 52.6083
CA 26.839 -15.7987 35.9983
CA 2.09814 -23.3247 55.3236
CA 3.46591 -32.9637 53.6023
CA 22.3834 11.0453 63.4339
CA 26.9333 3.37104 61.9488
CA 30.0481 3.38755 66.9142
CA 9.51956 -15.0078 15.3125
CA 29.9577 -24.0733 38.3209
CA 19.0266 -27.623 74.1829
CA -8.12915 -26.164 50.2964
CA 7.01696 -20.8663 48.0342
CA 8.37715 -24.5031 81.3843
CA 8.43324 0.752316 48.4725
CA 37.3527 1.0346 68.1216
CA 38.2735 -15.4933 47.1516
CA -3.50146 -12.5058 34.7393
CA 19.7535 -25.5395 42.1297
CA 24.5621 2.94728 47.523
CA 27.3793 -12.3459 37.5756
CA 0.384319 -26.4346 49.5834
CA -1.29595 -37.6373 49.1152
CA 26.1844 -22.7117 70.8641
CA 38.9286 -15.4025 61.9325
CA 33.9481 -23.9888 68.6559
CA 22.6351 -15.0269 22.7857
CA 29.0188 -33.0909 55.7741
CA 6.77527 -15.3038 85.796
CA 30.4578 -6.5697 49.295
CA 12.4595 -28.963 71.9112
CA -1.40831 -12.7643 42.0061
CA 27.0712 -20.6734 64.0314
CA 36.7026 2.35303 49.5539
CA 17.4823 -13.8721 15.2959
CA 34.7522 -24.539 83.9562
CA 14.0305 -3.30714 38.1603
CA 17.8811 -13.3367 23.5466
CA 30.5769 -2.95926 44.0103
CA 45.9561 0.40991 50.9296
CA 23.4074 -19.6672 85.8412
CA 31.7634 -31.1204 77.9563
CA 38.3837 -14.1486 44.8677
CA 13.0438 -16.0447 64.1828
CA 26.846 -13.7435 24.9817
CA 40.538 -16.7482 75.9353
CA 32.4854 -13.5677 38.1524
CA 9.9947 -49.0749 45.4429
CA 11.1206 -14.4081 47.4607
CA 20.9239 -28.7713 45.2972
CA 9.96597 -10.0882 45.0613
CA 12.4063 -27.5391 53.6936
CA 37.5788 -23.0461 80.0503
CA -5.01017 -14.0442 32.9272
CA 18.8832 2.20316 52.9148
CA 34.5556 -18.8151 47.5157
CA 23.2617 -35.2871 61.5189
CA 21.5423 -28.7529 70.2717
CA 42.328 -19.2243 57.7364
CA -0.603953 -19.8375 84.2066
CA 43.5109 -22.9637 81.9974
CA 18.2304 8.47452 39.8081
CA 2.99441 -19.2178 82.0168
CA -1.53584 -26.261 56.7796
CA 22.3748 9.28784 53.6875
CA 10.6758 -25.8769 56.2159
CA 30.3609 -5.46062 42.2423
CA 17.402 -15.6095 44.2372
CA 18.5893 10.0294 58.8509
CA 23.4476 -4.92561 34.948
CA 25.7848 5.63064 39.5013
CA 0.794423 -29.7631 53.8594
CA 39.504 -4.2515 39.9032
CA 15.3347 -29.0379 58.8309
CA 18.3804 -12.6778 44.0359
CA -4.30407 -12.9747 41.9196
CA 7.2873 -21.5062 52.3508
CA -8.4049 -14.1722 36.0403
CA 45.8393 -9.08769 50.1442
CA 33.896 -8.25953 54.4469
CA 17.9996 -29.7634 73.9204
CA -0.689005 -11.7174 63.0607
CA 36.9661 4.77024 46.1395
CA 11.1955 -16.3054 46.5044
CA 6.5218 -31.5456 49.6581
CA 20.1969 8.46519 43.6444
CA 19.5617 -19.4633 39.3946
CA 4.91957 -6.35404 14.2512
CA 20.5721 -24.1759 73.5625
CA 25.6823 -34.8736 39.8867
CA 31.9371 -6.13507 44.464
CA 11.3513 -33.9422 74.6166
CA 15.4621 -23.8165 36.2565
CA 21.3951 -25.6912 31.8932
