489

CA 12.2482 -13.0607 65.3316
CA -1.89493 -17.14 8.99346
CA 41.7922 -20.9434 86.9002
CA 40.1179 -17.801 59.3309
CA 31.2249 6.4384 64.8523
CA 13.9224 -5.27039 48.323
CA 21.486 -23.0961 71.6484
CA 22.9808 -8.73288 60.5185
CA 11.8071 -14.669 64.4111
CA 33.0023 -20.2974 49.2854
CA -0.00182743 -14.2753 41.1851
CA 12.9595 -18.9843 24.8123
CA 23.1352 -12.8415 58.0374
CA 29.819 -13.2141 69.2439
CA 35.652 -25.0355 84.29
CA 24.7951 -0.359079 61.8745
CA 14.9652 -21.7328 39.4916
CA 8.54231 -18.7302 14.7024
CA 24.1641 7.21275 50.4163
CA 5.13201 -47.8439 46.1852
CA 11.31 -24.3191 69.834
CA 41.5217 -19.6322 41.851
CA 24.5187 -2.11634 63.0947
CA -0.416992 -17.0855 84.356
CA 19.1204 -14.8941 39.4498
CA 28.9852 5.95893 49.0354
CA 22.6291 -8.53485 44.6689
CA 21.7805 -12.1213 44.6829
CA -5.37495 -40.7636 45.8598
CA 29.3907 -29.8996 59.5281
CA 24.179 0.860319 65.0113
CA 6.31893 -18.3674 89.5623
CA 30.9214 -31.7769 50.6046
CA 22.0923 -13.9609 76.4449
CA 24.577 -23.1354 88.2686
CA 18.3714 -13.2669 41.8221
CA 15.3166 -2.50791 47.4311
CA 8.67804 -34.4363 49.8476
CA 12.7196 -28.6064 53.0062
CA 25.8724 -14.616 32.9
CA 7.2883 -11.3353 44.815
CA 31.2262 -28.5557 62.39
CA 13.564 -9.63414 64.562
CA 16.8862 -17.1292 47.036
CA 31.1037 -23.2532 73.1731
CA 35.9612 1.85595 40.5408
CA -3.06402 -20.6878 83.4587
CA 11.42 -9.54118 53.0697
CA 40.3856 -18.5446 43.646
CA 33.7127 -33.3418 53.0403
CA 9.25962 -12.7119 16.5245
CA 1.24662 -17.2951 36.8337
CA 24.3955 -16.4535 60.4274
CA 30.1932 -36.523 37.3278
CA 29.3617 -17.2187 69.9786
CA 22.5135 -22.5521 73.2548
CA 20.18 -23.3702 32.5986
CA 33.5229 -11.302 39.478
CA 18.213 -4.05187 41.4078
CA 30.4241 -8.61649 33.0279
CA 31.3185 -42.4703 49.3852
CA 29.3165 -37.617 57.5084
CA 21.4723 -0.709276 52.3967
CA 28.5208 -0.639606 50.4556
CA 20.6079 -16.5641 44.322
CA 25.6562 -13.8702 66.546
CA 37.5682 -20.2178 85.0918
CA 3.06678 -18.9322 37.8443
CA 30.9643 -21.3234 66.5276
CA 21.2295 4.06804 50.642
CA 27.1825 -32.712 38.0698
CA 10.7818 -16.2973 69.5137
CA 34.3294 -33.4246 48.115
CA 21.1324 3.64753 57.8967
CA 41.941 3.02148 40.7907
CA 19.9094 -24.6194 85.5949
CA 28.9174 -5.08715 49.67
CA 1.82901 -20.2937 55.7774
CA 1.58862 -27.4707 61.539
CA 20.4295 -1.32086 44.3236
CA 25.1229 -0.0593428 51.6585
CA 32.1446 -23.7119 52.7681
CA 4.28558 -17.2307 41.5091
CA 19.7076 -23.9089 71.2954
CA 30.2244 -4.49691 52.8163
CA 29.4217 11.5262 38.5128
CA 34.1664 -22.5061 84.9412
CA 15.2305 -20.6954 36.3988
CA -3.49829 -7.18983 10.5495
CA 23.0491 -24.1675 69.2186
CA 22.052 -1.20637 56.7007
CA 32.8314 -30.4489 67.0931
CA 10.4479 -11.963 53.0625
CA 20.3346 -31.7989 58.7282
CA 22.9097 -29.063 37.9642
CA 30.6863 -15.8839 82.5222
CA 12.989 -13.3062 61.2346
CA 12.0177 -9.92209 49.5086
CA 41.7793 -16.9801 44.593
CA -7.03141 -26.0794 53.986
CA 36.9351 -19.813 60.4516
CA 38.4145 -28.9836 86.5295
CA 43.0801 -19.7302 39.329
CA 31.1772 -27.4852 78.2623
CA 33.7777 -13.3857 51.2639
CA 33.6433 -20.8039 81.9849
CA 36.7389 0.863055 38.5849
CA 8.034 -17.5027 45.4363
CA 11.3915 -7.38947 48.7706
CA 28.8081 -29.8382 57.5948
CA 14.1915 -0.424391 69.1888
CA 25.0969 7.86581 62.635
CA 39.7682 -21.1858 83.9219
CA 4.90848 -37.2875 52.5896
CA 0.00870458 -46.6349 48.2865
CA 29.7679 -13.6147 85.2603
CA 31.1331 -15.0775 47.179
CA 27.0733 -38.4117 53.548
CA 5.54463 -11.6476 15.4947
CA -1.41647 -14.126 29.9208
CA 15.271 -32.8386 71.7579
CA 29.4625 -27.9393 81.9252
CA 36.3356 -14.4514 54.4048
CA 29.5465 -14.0037 63.0849
CA 44.0955 -2.99814 38.4774
CA 25.3446 -31.6536 66.0867
CA 14.2513 -18.8904 15.1599
CA 14.4207 -18.8262 26.2985
CA 3.98479 -35.7556 50.8201
CA 37.5871 -2.96993 47.5927
CA -1.61946 -23.6934 49.841
CA 21.9743 -15.8848 78.6299
CA 9.75887 2.02851 50.1983
CA 25.0628 -15.6695 69.4814
CA 31.9645 -2.94126 51.5529
CA 21.104 -8.43305 58.2752
CA 0.240724 -15.6147 54.411
CA 30.6104 -26.1084 53.0825
CA 34.0032 -13.2799 34.8121
CA 22.7608 -22.8874 89.2299
CA 28.3328 -29.4701 36.7942
CA 24.1818 -25.0509 33.0894
CA 30.4333 -25.0035 55.2043
CA 16.8055 -6.69318 55.7306
CA 26.4585 -8.9174 50.2763
CA -0.594986 -19.8523 53.9001
CA 26.4914 -15.0277 51.2405
CA 8.58898 -47.5187 47.4627
CA 1.10169 -15.8857 31.3815
CA 9.9211 -4.15708 46.2084
CA 19.1457 -11.063 45.5675
CA -0.896153 -27.5635 58.746
CA 13.8603 -15.0352 35.2596
CA 6.0089 -10.4574 48.81
CA 37.3648 -22.6013 41.2354
CA 28.3272 -0.268974 59.2605
CA -2.09628 -19.2279 55.7443
CA 0.845231 -10.2971 55.3881
CA 11.5656 -14.913 17.9681
CA 10.054 -14.6516 63.8818
CA 11.4766 -4.26989 65.6782
CA 19.925 -32.0935 71.6719
CA 3.33571 -22.2205 52.3975
CA 4.8339 -17.6111 48.2603
CA 24.6489 -35.9967 51.8493
CA 7.7811 -12.3244 48.7175
CA 1.09244 -17.2954 80.8839
CA 30.6273 -27.2403 65.8819
CA 5.11164 -29.3391 51.8572
CA 18.3613 -15.9729 65.4903
CA 15.2823 1.55365 53.9075
CA 2.57106 -4.49447 59.6673
CA 21.4709 -5.52919 52.0174
CA 39.3575 -18.3302 62.3843
CA 0.532947 -23.909 45.8307
CA 29.5023 -10.0387 65.7048
CA 23.6873 -36.0584 38.8712
CA 34.3523 -24.6822 57.9295
CA 2.99638 -9.49555 9.8471
CA 30.2961 10.3156 35.606
CA 20.3124 -22.0318 73.1371
CA 32.0556 -0.269606 50.7566
CA 21.6674 -2.05184 54.4749
CA 31.7269 -19.5349 53.1698
CA 28.3576 -19.5514 52.545
CA -9.12658 -28.4482 50.9765
CA 31.2175 -31.2929 57.0334
CA 10.0411 0.580748 53.3494
CA 36.4471 -11.3267 43.644
CA 40.4428 -1.36433 41.7777
CA 13.4088 -5.12371 46.4391
CA 12.4532 -24.4527 67.2379
CA 32.4507 2.333 35.4973
CA 32.5623 -25.4013 59.5811
CA 2.20553 -24.7463 59.7755
CA 10.6489 2.759 52.5998
CA 18.5786 -19.6593 33.3911
CA 23.6387 -27.4767 70.9827
CA 20.074 -12.7437 68.4327
CA 28.7903 -34.6717 60.8177
CA 24.7733 4.16703 51.0264
CA 26.247 -1.84403 61.3332
CA 19.0201 -9.01371 66.8568
CA 27.4084 -12.7262 58.8723
CA 15.6917 -28.8427 40.7224
CA 32.1769 -19.6218 72.5971
CA 5.71063 -29.2773 48.0282
CA 25.3391 -29.2632 39.5281
CA 47.3862 -13.4944 53.526
CA 20.6276 -15.7209 64.1515
CA 34.0569 -37.0293 58.4565
CA 19.7978 -7.16834 48.3175
CA 22.9451 2.01993 55.5711
CA 17.7505 -4.9898 46.2678
CA 40.9066 -19.5571 40.0869
CA 10.9697 -20.0664 71.4011
CA 4.73363 -14.8749 57.5547
CA 20.0861 12.4824 44.1857
CA 40.9605 -19.8117 52.0601
CA 30.4781 -9.85887 67.5949
CA 22.1214 -6.9713 47.5297
CA -3.61932 -43.7168 45.4355
CA 22.2419 7.6545 45.013
CA 16.1084 -16.5725 24.5929
CA 44.6553 -16.8289 56.0768
CA 0.815373 -22.1833 54.714
CA 21.2771 0.975954 56.2873
CA -5.45477 -32.8143 55.6444
CA 15.4408 -18.1166 64.0914
CA 23.6237 -18.3132 32.942
CA 25.3389 -37.0734 54.1378
CA 42.8588 -13.5197 62.6985
CA 31.8555 -20.3778 75.9101
CA 3.8447 -13.9416 86.5144
CA 21.3136 -23.5686 80.2939
CA 13.6021 -16.1945 18.1967
CA 22.2795 7.80416 41.24
CA 33.625 -4.25876 50.702
CA 2.13956 -24.4259 43.7411
CA -2.9179 -25.5138 52.8982
CA 11.115 -19.5152 67.6587
CA 33.7585 -32.403 65.2043
CA 28.1691 1.90099 62.9609
CA 36.9762 -14.0235 48.7732
CA 25.8542 -26.108 85.4252
CA 17.3087 -32.4945 78.0027
CA 27.2844 -22.8596 86.3005
CA 41.5369 -17.3189 52.5801
CA 34.6679 4.20156 66.1993
CA 30.4006 -38.183 53.8581
CA 5.5952 -23.0585 70.0661
CA 28.8707 -13.3726 32.8221
CA 34.9289 4.99641 45.1118
CA -6.651 -28.9504 52.3149
CA 31.1976 -31.0753 36.8314
CA 28.0814 -18.5106 67.0681
CA 20.749 -27.5348 68.5574
CA 16.365 -16.7222 34.4376
CA 38.2014 -17.0885 75.4985
CA 13.1233 -27.6751 41.5192
CA 32.4653 -22.7769 77.7247
CA 24.8651 -9.25369 55.0512
CA 12.7264 -5.37933 38.9579
CA 44.5823 -19.1251 42.2267
CA 31.2325 3.85432 50.5573
CA -0.4373 -39.5813 47.0389
CA 3.47897 -17.4829 79.8637
CA 41.239 -21.4832 50.7372
CA -3.28443 -17.0503 32.7673
CA 22.7892 1.44517 68.6814
CA 6.61801 -20.3328 73.065
CA 28.5114 7.41804 55.6854
CA 36.2853 -18.9439 76.0571
CA 39.9529 -19.3139 85.2746
CA 13.288 -19.0727 45.2077
CA 11.8322 0.39153 67.8946
CA 25.1646 -6.04737 47.1372
CA 16.2924 -23.4877 31.2855
CA 19.6096 16.7061 43.9431
CA 19.931 -32.646 55.1711
CA 25.9652 -1.99967 42.3547
CA 34.1361 -16.7167 42.8101
CA 5.8665 -0.651683 49.4377
CA 24.7067 -39.0846 56.4409
CA 21.6174 -22.5946 75.2279
CA 23.1493 -15.291 70.4877
CA 37.5644 -20.4075 58.1561
CA 24.2606 -28.0459 34.5898
CA 19.3988 -19.135 88.6333
CA 8.52315 -10.7429 53.2943
CA 35.3297 1.18703 47.2611
CA 27.6915 -18.9037 71.0802
CA 23.1306 -18.8845 77.6979
CA -0.894543 -9.1113 10.7084
CA 33.515 -33.8175 83.0983
CA 9.28983 -30.293 48.6421
CA 23.3733 -18.4083 80.7254
CA 27.544 -19.9776 35.4719
CA 20.9721 -18.4158 81.3456
CA 19.6579 -22.3692 35.9522
CA 28.1798 -34.9347 51.3126
CA 8.13026 -3.79231 59.6667
CA 2.55153 -17.6001 41.949
CA 16.6101 -17.5037 70.354
CA 28.7972 -24.1436 58.023
CA 7.30654 -11.7429 65.9002
CA 29.9687 -35.6212 57.8804
CA 21.5765 -15.9615 31.1404
CA 0.232784 -29.1125 56.1534
CA 25.9707 8.57686 54.7128
CA 7.72041 -11.9186 15.2316
CA 11.8957 4.29824 65.3168
CA 24.8775 -0.938627 46.8757
CA 26.0838 -3.95054 48.5293
CA 15.5145 -27.1018 43.9755
CA 25.244 -16.5014 38.8553
CA 30.1358 3.90529 35.3297
CA 32.3555 -38.3259 51.5194
CA 12.5745 0.0437431 66.1876
CA 21.5904 6.31707 63.329
CA 40.1209 -23.7788 41.6075
CA 23.6867 -15.1399 58.1319
CA 41.6348 -12.119 64.1037
CA 28.1423 8.02344 53.1142
CA 30.3551 -20.8901 68.8752
CA 28.7446 -39.1119 53.8072
CA 28.3615 -29.8537 62.9585
CA 31.1208 7.06344 33.2718
CA 2.47463 -12.3005 11.5686
CA 18.3666 -3.12442 58.135
CA 6.30593 -24.3681 79.8656
CA -5.88334 -18.3818 56.8121
CA 19.1511 -23.0316 40.893
CA 32.5441 -14.7099 55.423
CA 5.62862 -50.1423 45.9378
CA 22.7087 -11.1997 54.5511
CA 5.05738 -20.4611 42.9479
CA 52.0243 -6.52232 44.6144
CA 22.0735 -25.0159 38.705
CA 33.151 -26.4219 65.9194
CA -1.43054 -14.2686 12.7436
CA 34.9669 -18.4498 49.6185
CA 35.0177 5.65636 57.2811
CA 2.20967 -37.5877 56.8207
CA 29.8545 -5.3702 47.4902
CA 17.1101 -6.10288 39.5391
CA 18.5269 -13.4188 70.9989
CA 27.3176 -1.19855 41.3887
CA 11.5858 -25.4124 48.3415
CA 26.0281 2.86771 51.5727
CA 28.6481 1.8584 43.0526
CA 26.111 7.71939 39.9847
CA 5.21115 -53.4103 46.6546
CA -5.83047 -14.1257 58.7566
CA 6.58212 -27.7382 54.4833
CA 21.889 -5.10397 38.022
CA 22.3565 -16.2587 82.6676
CA 27.7109 -9.66197 64.6806
CA 30.7195 -20.4895 48.7823
CA 1.43379 -7.59244 10.8849
CA 25.5517 -1.1113 49.8022
CA 10.0502 -20.2161 52.2644
CA 24.0751 -3.70724 61.5247
CA 29.9734 -28.0731 50.1041
CA 30.8384 -31.0796 68.4209
CA 11.3232 -15.6445 28.9504
CA 11.4084 -8.27524 45.9136
CA 40.4671 -15.623 62.9712
CA 19.581 -17.353 20.312
CA 15.6506 -18.102 68.6067
CA 28.5796 -10.7413 36.9209
CA 27.7936 -14.8012 61.6428
CA 31.4986 -31.3639 79.0514
CA -4.07165 -32.4423 52.7527
CA 29.0279 -27.1422 77.7947
CA -5.43597 -2.75401 10.7398
CA 28.0261 -28.499 49.136
CA 13.5421 -22.9906 73.8224
CA 30.6495 -19.2547 41.4448
CA 23.4734 -1.48227 52.4228
CA 14.2971 -7.55863 55.6192
CA 21.6944 -20.1802 76.07
CA 24.3773 -2.19509 56.3328
CA 16.0337 -30.9116 56.3273
CA 12.2694 -6.5761 52.6292
CA 12.484 -6.56909 67.7166
CA 27.4827 10.6224 64.9371
CA 10.9138 -28.2359 42.3438
CA 47.1293 -3.77708 35.5929
CA 2.09484 -11.8314 65.7703
CA 9.2201 -7.40581 61.9039
CA 35.9504 -6.25665 57.8081
CA 29.2088 -18.4772 36.4841
CA 6.24148 1.11559 50.4996
CA 28.8881 -14.9379 53.1862
CA 33.593 -8.25546 43.842
CA 24.3277 -41.7001 55.0891
CA 9.54797 -19.7817 77.6246
CA 39.6245 -14.4209 75.0908
CA 26.908 8.85828 64.797
CA 13.5382 -22.2549 56.1385
CA 26.9333 3.37104 61.9488
CA 25.3829 8.41525 41.8747
CA 22.4341 -11.3369 66.5812
CA 17.9271 -13.0371 25.1598
CA 41.0888 -19.7875 59.7016
CA 31.1897 -18.0024 32.3926
CA 21.9721 -13.5849 41.7207
CA 17.3045 -12.7317 75.2322
CA 23.6379 4.87721 59.1837
CA 35.4954 -13.4456 38.8694
CA 6.05271 -11.1775 59.8261
CA 12.4834 -28.0323 60.4182
CA 14.7785 -26.5594 39.3357
CA 41.5727 -20.3298 44.8721
CA 26.6973 -3.87471 51.0335
CA 22.7002 5.75867 52.9376
CA 13.6422 -10.8362 44.9821
CA 15.8115 -6.03736 70.854
CA 38.9286 -15.4025 61.9325
CA 43.5428 -22.1753 48.2087
CA 34.2285 -12.2449 46.3751
CA 9.52553 -24.3695 50.8228
CA 6.77527 -15.3038 85.796
CA 42.1057 -15.0607 62.1277
CA 32.3564 -24.2487 82.5136
CA -1.40831 -12.7643 42.0061
CA 31.3693 -29.3322 69.8846
CA 2.49946 -29.7847 51.842
CA 17.4823 -13.8721 15.2959
CA -3.55385 -19.5329 49.5285
CA 0.949198 -38.3688 52.4191
CA 31.9334 2.58483 68.7217
CA 27.4009 -16.776 35.1221
CA 32.3561 6.45844 62.3487
CA 26.8159 -41.2055 52.0093
CA 14.9607 -13.8838 75.2051
CA 26.4172 -18.4255 67.947
CA 6.38241 -21.0579 81.9445
CA 18.0044 5.11468 51.9813
CA 40.538 -16.7482 75.9353
CA 32.4854 -13.5677 38.1524
CA 33.8355 -29.9644 53.2075
CA 6.10481 -39.3552 49.1378
CA 26.571 -14.254 78.0418
CA 16.2136 -11.2 26.9851
CA 41.3184 -17.8565 49.3036
CA 21.4905 -25.0302 70.4268
CA 9.69936 -28.9732 51.7043
CA 17.1014 -19.8553 16.0608
CA 14.0763 -13.0554 65.3103
CA 35.988 -18.401 72.7713
CA 13.4709 -11.802 63.9397
CA 10.7191 -11.2698 63.9675
CA 12.2252 -5.96867 62.5364
CA 25.1983 -5.57383 36.1597
CA -5.74719 -17.0357 49.5012
CA 33.9778 -22.2404 55.5637
CA 35.4843 -30.7889 83.7336
CA 14.294 -3.44882 64.1703
CA 10.6758 -25.8769 56.2159
CA 33.7062 -10.0672 38.1409
CA 15.1759 -14.635 26.7393
CA 15.5127 -21.0081 26.1372
CA 14.5801 -27.3118 56.4329
CA 23.4609 -22.6017 76.0286
CA 15.0921 -16.3763 22.9807
CA -0.0463452 -21.6076 36.7217
CA 28.2942 -5.81018 35.7661
CA 9.82769 -15.4182 71.5855
CA 27.5132 -29.5838 34.6902
CA 19.5371 -0.321309 52.7376
CA 15.677 -9.61739 76.3877
CA 45.8393 -9.08769 50.1442
CA 33.896 -8.25953 54.4469
CA 17.9996 -29.7634 73.9204
CA 14.4655 -32.0311 73.9357
CA 27.9247 4.04629 32.8863
CA 7.14204 -37.8892 51.2219
CA 21.6498 -27.4109 37.8656
CA 34.854 -25.0246 86.7353
CA 48.3776 -8.25968 47.446
CA 4.91957 -6.35404 14.2512
CA 2.23145 -28.595 53.1933
CA 14.3105 -11.8974 60.5771
CA 30.179 -17.5196 77.6303
CA 11.3513 -33.9422 74.6166
CA -0.785546 -17.0336 51.5236
CA 37.776 -25.6855 84.1832
