489

CA 12.4317 -4.22276 53.9903
CA 16.0553 0.555818 51.4562
CA 33.984 -16.9514 75.5285
CA 29.035 -11.8088 54.8541
CA 17.8656 0.181101 61.598
CA 20.8613 -4.04867 35.4303
CA 39.7885 1.74062 44.8973
CA 22.9808 -8.73288 60.5185
CA 11.8071 -14.669 64.4111
CA 33.0023 -20.2974 49.2854
CA 37.2846 -39.5108 58.0569
CA 20.4013 -0.0790972 68.3378
CA 48.17 -9.24953 49.4126
CA 29.819 -13.2141 69.2439
CA 35.652 -25.0355 84.29
CA 24.7951 -0.359079 61.8745
CA 14.9652 -21.7328 39.4916
CA 35.9945 -17.8566 40.8523
CA 31.0019 -9.61916 61.1168
CA 5.13201 -47.8439 46.1852
CA 27.9909 -23.9595 81.5235
CA 22.5082 -17.1568 68.8485
CA 41.9974 -18.0623 58.3372
CA 38.1945 9.07673 36.873
CA 26.5137 -0.364719 62.5146
CA 32.7372 -33.9321 56.5824
CA 22.6291 -8.53485 44.6689
CA 3.85202 -54.4895 48.2069
CA 19.4572 -42.4132 53.8839
CA 16.1328 -24.1803 69.3086
CA 24.179 0.860319 65.0113
CA 29.3613 -13.94 76.0203
CA 30.9214 -31.7769 50.6046
CA 22.0923 -13.9609 76.4449
CA 25.4438 -0.896827 70.595
CA 24.7595 -18.1243 41.1289
CA 18.4383 0.149582 68.4369
CA 8.67804 -34.4363 49.8476
CA 6.65484 -7.82709 50.5416
CA 21.2264 -27.9414 58.0683
CA 7.2883 -11.3353 44.815
CA 22.5219 -17.77 71.4669
CA 13.564 -9.63414 64.562
CA 16.8862 -17.1292 47.036
CA 31.1037 -23.2532 73.1731
CA 27.0373 5.80687 48.6488
CA 11.2151 -4.40377 62.7706
CA 11.42 -9.54118 53.0697
CA 12.6708 -9.76132 62.0235
CA 13.6345 -18.9914 37.2251
CA 39.0865 -18.5179 63.9284
CA 4.53525 -29.2978 41.2819
CA 24.3955 -16.4535 60.4274
CA 30.1932 -36.523 37.3278
CA -2.3412 -15.4972 82.3505
CA 22.5135 -22.5521 73.2548
CA 13.0386 -26.3514 61.9793
CA 33.5229 -11.302 39.478
CA 18.213 -4.05187 41.4078
CA 30.4241 -8.61649 33.0279
CA 43.0412 -3.40331 41.9831
CA 29.3165 -37.617 57.5084
CA 22.4745 -26.3333 56.2074
CA 30.187 -29.3041 68.4221
CA 35.5752 -29.677 82.4181
CA 25.6562 -13.8702 66.546
CA 37.5682 -20.2178 85.0918
CA 3.06678 -18.9322 37.8443
CA 30.9643 -21.3234 66.5276
CA 37.4712 -17.7611 42.2222
CA 25.4201 -27.2563 53.5649
CA 19.7787 -2.1576 71.539
CA 35.8599 -38.1796 53.6945
CA -10.1705 -28.1485 48.9938
CA 20.6489 -5.90575 78.3602
CA 26.1244 -26.4787 57.3104
CA 19.2903 -7.72869 61.6056
CA 18.4453 -25.0671 57.1224
CA 1.58862 -27.4707 61.539
CA -5.76535 -30.0806 55.3087
CA 38.357 -35.8327 43.782
CA 28.7811 -10.0296 61.6889
CA 4.28558 -17.2307 41.5091
CA 3.59497 -15.5097 82.4871
CA 22.9926 -22.7788 78.4372
CA 29.4217 11.5262 38.5128
CA 4.46915 -29.66 43.721
CA 38.0023 -14.7861 72.4113
CA -3.49829 -7.18983 10.5495
CA 29.5392 7.12731 58.2529
CA 17.0026 -31.8511 80.7146
CA 32.8314 -30.4489 67.0931
CA 33.954 -15.0281 44.6169
CA 32.3262 -9.78022 71.7775
CA 14.7551 -27.2415 58.2807
CA 30.6863 -15.8839 82.5222
CA -5.18681 -18.6382 47.6728
CA 12.0177 -9.92209 49.5086
CA 9.13467 -7.74709 43.8505
CA 24.3643 3.88646 70.0965
CA 6.73985 -16.6445 47.1565
CA 3.54505 -16.468 49.1754
CA 43.0801 -19.7302 39.329
CA 35.7433 -16.4942 60.4935
CA 21.0226 -2.44644 39.3411
CA 16.5413 -34.3575 83.6491
CA 36.7389 0.863055 38.5849
CA 8.034 -17.5027 45.4363
CA 11.3915 -7.38947 48.7706
CA 16.7999 -18.8415 23.4076
CA 13.1213 -22.2405 38.893
CA 45.6628 -0.688808 40.9799
CA 2.89231 -16.8059 8.14093
CA 4.90848 -37.2875 52.5896
CA 0.00870458 -46.6349 48.2865
CA 24.9883 -2.12494 60.8129
CA 31.1331 -15.0775 47.179
CA 21.0918 -13.3638 53.8127
CA 5.54463 -11.6476 15.4947
CA 10.3697 -42.875 48.0544
CA 20.7556 -16.7273 39.727
CA 29.4625 -27.9393 81.9252
CA 20.368 -11.9452 58.3494
CA 29.5465 -14.0037 63.0849
CA 5.03117 -21.2167 35.8869
CA 24.4141 -15.0584 71.2033
CA 22.6148 0.21255 60.3971
CA 32.6015 -13.2953 83.8352
CA 3.98479 -35.7556 50.8201
CA 37.5871 -2.96993 47.5927
CA 0.955515 -41.3946 53.1345
CA 28.5288 0.863528 53.4182
CA 19.4673 5.96846 59.3097
CA 40.3366 -22.9521 44.4847
CA 31.9645 -2.94126 51.5529
CA 11.6137 -29.7057 59.7315
CA 28.8392 -14.3544 55.4643
CA 27.2073 -3.37012 70.9301
CA 34.2793 -38.6244 48.9579
CA 1.63942 -35.0788 54.6127
CA 1.2899 -19.6527 82.5277
CA 24.1818 -25.0509 33.0894
CA 15.9535 -13.1395 44.1701
CA 33.5913 8.24707 36.658
CA 26.4585 -8.9174 50.2763
CA 23.722 -2.86939 70.3941
CA 26.4914 -15.0277 51.2405
CA 8.58898 -47.5187 47.4627
CA 1.10169 -15.8857 31.3815
CA 35.2247 -27.7866 82.8652
CA 23.563 1.98012 60.696
CA -0.896153 -27.5635 58.746
CA 13.8603 -15.0352 35.2596
CA 3.55812 -28.3789 58.0751
CA 7.30283 -23.2799 71.257
CA 21.7312 3.31949 60.0955
CA -2.09628 -19.2279 55.7443
CA 0.845231 -10.2971 55.3881
CA 11.5656 -14.913 17.9681
CA 26.0108 13.1671 66.8203
CA 11.4766 -4.26989 65.6782
CA 23.7703 -0.953689 69.467
CA 37.8507 8.51546 59.4244
CA 4.8339 -17.6111 48.2603
CA 37.963 3.76081 45.0538
CA 7.7811 -12.3244 48.7175
CA 1.09244 -17.2954 80.8839
CA 30.6273 -27.2403 65.8819
CA 22.1378 -11.3722 59.6399
CA 28.4392 -11.1202 63.5187
CA -2.30033 -17.0018 45.5004
CA 4.66814 -21.8944 41.2114
CA 14.0209 -17.0886 15.4032
CA 28.6936 -11.6578 83.413
CA 20.7534 -13.0874 39.1068
CA 29.5023 -10.0387 65.7048
CA -5.67931 -28.1973 55.7496
CA 34.3523 -24.6822 57.9295
CA 2.99638 -9.49555 9.8471
CA 32.5021 8.13901 63.0907
CA 12.4387 -3.21001 59.5146
CA 26.8093 2.11402 66.036
CA 23.8542 11.2808 61.6042
CA -5.80682 -16.3939 51.5391
CA 28.3576 -19.5514 52.545
CA 11.0482 -24.4797 51.8174
CA 31.2175 -31.2929 57.0334
CA 11.6544 -32.3836 58.7327
CA 15.5741 -30.2595 58.7644
CA 40.4428 -1.36433 41.7777
CA 23.3026 8.33167 60.7406
CA 29.0578 -17.325 52.6557
CA 32.4507 2.333 35.4973
CA 20.7449 -5.31103 57.3037
CA 2.20553 -24.7463 59.7755
CA 3.99762 -15.7526 88.8806
CA 18.5786 -19.6593 33.3911
CA 16.4162 -1.59999 57.485
CA 20.074 -12.7437 68.4327
CA 28.7903 -34.6717 60.8177
CA 5.40448 -15.0677 45.7469
CA 4.47536 -10.6413 34.3768
CA 2.6268 -3.49169 17.2143
CA 1.81603 -20.2332 32.3666
CA 33.0535 -32.7085 46.2332
CA 34.464 4.93367 47.4916
CA 5.71063 -29.2773 48.0282
CA 25.3391 -29.2632 39.5281
CA 47.3862 -13.4944 53.526
CA 30.5976 -28.7491 54.6472
CA 34.0569 -37.0293 58.4565
CA 34.3072 -17.0414 36.7796
CA 3.57161 -12.6299 34.0034
CA 7.28625 -12.2336 50.5742
CA 40.9066 -19.5571 40.0869
CA 10.9697 -20.0664 71.4011
CA 13.9328 -11.9413 27.2839
CA 33.7521 -39.9159 59.004
CA 4.4916 -24.7608 84.0371
CA 32.2971 -21.2028 72.9937
CA 32.4287 -25.2934 60.005
CA -3.61932 -43.7168 45.4355
CA 22.2419 7.6545 45.013
CA 16.1084 -16.5725 24.5929
CA 44.6553 -16.8289 56.0768
CA 10.0662 -10.0613 56.5551
CA 21.2771 0.975954 56.2873
CA 33.6492 -26.6752 80.7868
CA 15.4408 -18.1166 64.0914
CA 35.6894 -31.3589 45.9715
CA 4.21041 -18.0299 35.6789
CA 29.6234 5.36467 53.1386
CA 31.6218 3.77333 31.6516
CA 16.6321 -22.206 69.5123
CA 25.919 4.97671 39.6162
CA 13.6021 -16.1945 18.1967
CA 22.2795 7.80416 41.24
CA 19.8363 -12.1867 41.2503
CA 2.13956 -24.4259 43.7411
CA 5.5626 -31.8921 46.4192
CA 19.7334 1.8242 58.1304
CA 20.7936 -9.21177 48.8397
CA 23.5581 -25.237 85.3679
CA 20.9974 -1.92461 65.2567
CA 25.8542 -26.108 85.4252
CA 17.3087 -32.4945 78.0027
CA 24.508 -22.372 79.9841
CA 41.5369 -17.3189 52.5801
CA 20.648 -6.8071 59.79
CA 30.4006 -38.183 53.8581
CA -5.25465 -11.9158 42.6503
CA 28.8707 -13.3726 32.8221
CA 11.5733 -51.1819 48.0938
CA -6.651 -28.9504 52.3149
CA 31.1976 -31.0753 36.8314
CA 28.0814 -18.5106 67.0681
CA 28.0092 -21.5624 73.0699
CA 16.7706 -18.4253 13.0335
CA 22.716 -4.78764 35.5241
CA 12.5794 -21.2598 70.6841
CA 39.0094 0.202232 35.7106
CA 9.31743 -3.54347 56.0388
CA 32.6792 -27.8555 69.8534
CA 10.569 -12.1285 53.621
CA 31.2325 3.85432 50.5573
CA -7.22539 -19.6919 51.0814
CA 12.5017 -19.4458 39.211
CA 41.239 -21.4832 50.7372
CA -3.28443 -17.0503 32.7673
CA 22.7892 1.44517 68.6814
CA 17.5568 -2.97964 53.3104
CA 28.5114 7.41804 55.6854
CA 36.2853 -18.9439 76.0571
CA 33.4205 -28.6317 46.4593
CA 13.288 -19.0727 45.2077
CA 9.71159 -25.9741 52.3051
CA 9.17498 -8.80192 10.7772
CA 16.2924 -23.4877 31.2855
CA 37.992 -29.1878 80.8276
CA 29.2601 7.16695 34.3528
CA 3.60323 -26.8742 52.7963
CA 34.1361 -16.7167 42.8101
CA 22.2836 -8.23505 37.5199
CA 24.7067 -39.0846 56.4409
CA 21.6174 -22.5946 75.2279
CA 18.0519 -3.53518 64.7298
CA 30.081 8.90629 35.2059
CA 39.377 -19.2763 52.1776
CA 21.6329 -15.7044 75.547
CA 8.52315 -10.7429 53.2943
CA 35.3297 1.18703 47.2611
CA 5.88469 -21.2492 39.0579
CA 12.9269 -26.9908 72.2498
CA -0.894543 -9.1113 10.7084
CA 30.6228 -18.7351 65.966
CA 5.48474 -24.6955 68.3662
CA 23.3733 -18.4083 80.7254
CA 27.544 -19.9776 35.4719
CA 17.2009 1.08256 55.9331
CA 2.1998 -13.9352 32.3519
CA 28.1798 -34.9347 51.3126
CA 8.13026 -3.79231 59.6667
CA 6.02748 -8.01147 18.0085
CA 13.7967 -26.0759 60.2701
CA 38.5689 -23.422 52.5322
CA 7.30654 -11.7429 65.9002
CA 24.2396 -20.7241 68.6439
CA 12.9947 -5.01837 67.7769
CA 10.9486 -29.0293 54.1771
CA 20.9291 -39.4074 58.5439
CA 7.72041 -11.9186 15.2316
CA 17.0708 -12.315 42.6266
CA 24.8775 -0.938627 46.8757
CA 26.0838 -3.95054 48.5293
CA 31.8914 -15.9894 85.0836
CA 25.244 -16.5014 38.8553
CA 30.1358 3.90529 35.3297
CA 3.13241 -35.5717 52.4572
CA 27.5979 -21.2547 69.7472
CA 21.5904 6.31707 63.329
CA 14.5261 -33.6419 85.2496
CA 42.6073 -6.785 43.1935
CA 24.8807 -3.93595 43.9881
CA 8.72002 -31.0754 60.5246
CA 19.7177 -10.9333 59.7934
CA 31.3282 -18.6249 73.8468
CA 28.3615 -29.8537 62.9585
CA 25.5633 -5.38598 55.2599
CA 2.47463 -12.3005 11.5686
CA 17.1825 -33.105 61.1039
CA 35.665 -39.674 52.0532
CA -5.88334 -18.3818 56.8121
CA 19.1511 -23.0316 40.893
CA 32.5441 -14.7099 55.423
CA 5.62862 -50.1423 45.9378
CA 22.7087 -11.1997 54.5511
CA 5.05738 -20.4611 42.9479
CA 7.96071 -16.4035 71.7092
CA 22.0735 -25.0159 38.705
CA 31.1861 -16.959 50.777
CA 32.4627 -30.9522 76.668
CA 34.9669 -18.4498 49.6185
CA 35.0177 5.65636 57.2811
CA 2.20967 -37.5877 56.8207
CA 27.582 7.43659 50.8471
CA 17.1101 -6.10288 39.5391
CA 25.6191 -3.17119 65.3873
CA 14.7479 -15.8832 69.3558
CA 2.54194 -22.6747 35.0279
CA 3.22244 -2.52308 65.5932
CA 28.6481 1.8584 43.0526
CA 26.111 7.71939 39.9847
CA 7.34366 -19.28 49.1679
CA -3.28854 -12.0736 42.7846
CA 11.105 -9.85148 63.1318
CA 21.889 -5.10397 38.022
CA 22.3565 -16.2587 82.6676
CA 27.7109 -9.66197 64.6806
CA 30.7195 -20.4895 48.7823
CA 0.97206 -21.411 58.2571
CA 21.6312 -25.6467 40.876
CA 10.0502 -20.2161 52.2644
CA 25.4026 -18.413 37.3424
CA -0.0525718 -16.9713 8.54846
CA 30.8384 -31.0796 68.4209
CA 28.4388 -14.3165 81.7337
CA 19.0882 -9.33399 75.4402
CA 19.2512 -7.18101 53.2783
CA 27.0686 2.43554 44.3336
CA 33.6832 -23.0526 87.1296
CA 16.7294 -29.3643 61.8328
CA 17.8921 -18.6433 68.6324
CA 31.4986 -31.3639 79.0514
CA 1.90437 -20.5522 54.3587
CA 31.6636 -27.5048 57.3786
CA -5.43597 -2.75401 10.7398
CA 28.0261 -28.499 49.136
CA 0.998425 -12.1971 51.2379
CA 17.3123 -26.0686 52.6599
CA 27.1712 -26.2205 80.98
CA 4.03522 -10.4331 15.2275
CA 33.1863 -26.521 53.915
CA 24.3773 -2.19509 56.3328
CA 20.4806 -12.5369 46.2642
CA 12.2694 -6.5761 52.6292
CA 11.0182 -2.96201 58.2494
CA 19.0517 -25.7038 80.6381
CA 21.818 13.2673 42.5069
CA 2.61731 -6.60412 8.4139
CA 19.8539 -13.7925 56.2595
CA 16.2348 -25.1019 56.4603
CA 31.8291 -31.5232 53.5283
CA 1.31391 -8.14079 51.2452
CA 21.9572 -1.16469 56.9696
CA 28.8881 -14.9379 53.1862
CA 33.593 -8.25546 43.842
CA 21.8206 4.06696 57.8574
CA 9.54797 -19.7817 77.6246
CA 21.6827 -3.45773 31.4629
CA 26.908 8.85828 64.797
CA 18.6223 -23.9083 36.7987
CA 26.1519 5.82723 51.1758
CA 39.3523 -18.4001 57.9636
CA 22.4341 -11.3369 66.5812
CA 2.70616 -21.67 49.6223
CA 41.0888 -19.7875 59.7016
CA 29.9555 -11.78 66.5745
CA 21.9721 -13.5849 41.7207
CA 13.1361 -15.6354 72.6878
CA 23.6379 4.87721 59.1837
CA 35.4954 -13.4456 38.8694
CA 24.6193 9.48343 60.1621
CA 17.0611 -11.6668 56.2607
CA 24.8133 -14.8232 37.5861
CA 13.3495 2.29495 52.0059
CA 35.0188 -36.103 60.902
CA 22.7002 5.75867 52.9376
CA 19.1053 -27.9666 58.3682
CA 6.71557 -6.96836 47.434
CA 38.9286 -15.4025 61.9325
CA 6.20608 -10.026 51.8535
CA -0.189217 -22.9277 32.7996
CA 9.52553 -24.3695 50.8228
CA 6.77527 -15.3038 85.796
CA 35.2268 -5.51287 54.9644
CA 32.3564 -24.2487 82.5136
CA 43.5096 -21.6658 42.9067
CA 31.3693 -29.3322 69.8846
CA 2.49946 -29.7847 51.842
CA 17.4823 -13.8721 15.2959
CA 37.1367 -33.7532 46.4457
CA 31.4786 -17.9302 39.6315
CA 34.7851 -38.311 51.2565
CA 27.4009 -16.776 35.1221
CA 32.3561 6.45844 62.3487
CA 19.6087 -3.02653 66.3546
CA 31.9094 4.75603 66.2199
CA 26.4172 -18.4255 67.947
CA 6.38241 -21.0579 81.9445
CA 2.67532 -9.79354 45.4994
CA 34.4026 -19.0788 65.6517
CA 32.4854 -13.5677 38.1524
CA 35.097 -34.9536 47.6205
CA 6.10481 -39.3552 49.1378
CA 26.571 -14.254 78.0418
CA 16.2136 -11.2 26.9851
CA 41.3184 -17.8565 49.3036
CA 23.4621 -18.4299 39.6032
CA 9.69936 -28.9732 51.7043
CA 17.1014 -19.8553 16.0608
CA 28.1246 12.3588 70.6973
CA 35.988 -18.401 72.7713
CA 13.4709 -11.802 63.9397
CA 40.1269 -19.0206 55.2615
CA 19.4017 -10.6917 55.8246
CA 25.1983 -5.57383 36.1597
CA 31.1094 10.3525 38.1938
CA -0.020334 -18.6543 54.292
CA 38.4428 -15.3641 57.2977
CA 18.1967 3.97622 60.8574
CA 10.1303 -19.4603 69.7835
CA 15.4112 -17.2913 38.3133
CA 15.1759 -14.635 26.7393
CA 15.5127 -21.0081 26.1372
CA 20.7068 -22.903 34.585
CA 43.0984 1.1967 42.9768
CA 15.0921 -16.3763 22.9807
CA -0.485582 -21.0448 51.8336
CA 28.2942 -5.81018 35.7661
CA 30.9559 -6.39492 64.0177
CA 27.5132 -29.5838 34.6902
CA -2.50501 -22.5766 55.1085
CA 15.677 -9.61739 76.3877
CA 45.8393 -9.08769 50.1442
CA 34.1714 -30.7168 78.4317
CA 37.2842 -32.8801 48.6073
CA 14.4655 -32.0311 73.9357
CA 27.9247 4.04629 32.8863
CA 31.0339 -16.4093 67.3071
CA 10.3813 -20.2741 75.8153
CA 26.5217 7.38053 61.9978
CA 48.3776 -8.25968 47.446
CA 4.91957 -6.35404 14.2512
CA 32.1398 -18.0913 44.4835
CA 14.3105 -11.8974 60.5771
CA 30.179 -17.5196 77.6303
CA 11.3513 -33.9422 74.6166
CA -0.785546 -17.0336 51.5236
CA 7.76024 -1.36916 65.4683
