489

CA 31.523 -28.5081 51.4956
CA 20.9274 -15.7328 29.977
CA 32.3113 -15.8052 74.5641
CA 31.169 7.7031 35.1619
CA 37.9407 -17.1519 39.8254
CA 20.1523 -11.6506 61.4005
CA 36.8392 -24.8867 40.3225
CA 19.0002 -20.7101 70.2702
CA 37.3985 -12.5206 49.803
CA 38.266 -23.065 89.0393
CA 40.882 -21.0529 48.9498
CA 25.9927 -34.754 82.3794
CA 28.5984 -16.9877 92.2552
CA 6.04042 -2.88535 59.7183
CA 25.2755 -23.3031 32.4788
CA 30.15 -24.5199 30.2487
CA 15.9816 -16.3921 83.9953
CA 5.32285 -7.36335 3.28258
CA 42.7015 -6.47395 66.133
CA 43.4769 -16.8997 57.3333
CA 17.5776 1.64012 38.0878
CA 17.987 -23.6741 38.7971
CA 18.1403 -16.5955 64.019
CA 20.9661 -21.2769 33.9609
CA 22.6126 -10.1222 61.7013
CA 3.57696 -8.00702 8.00346
CA 33.4321 -11.7058 63.408
CA 15.9409 -22.779 55.9098
CA 5.06857 -11.516 45.2779
CA 10.5592 -15.1779 46.7555
CA 29.7483 -16.7201 82.2551
CA 5.23499 -9.9763 51.1713
CA 28.8118 3.92053 60.4408
CA 40.0426 -20.8322 82.0326
CA 11.1952 -31.0221 40.4637
CA 11.7536 -10.1903 65.704
CA 30.5456 -28.4514 44.6126
CA 3.63316 -2.121 49.5006
CA 17.4172 -6.33335 78.2558
CA 42.6869 -16.0302 40.7711
CA 29.4954 -1.09533 60.133
CA 23.0431 -34.1517 57.4165
CA 25.6142 -13.5898 82.6857
CA 15.097 -30.6976 81.971
CA 33.729 -9.34028 39.772
CA 18.1803 -7.45543 73.7518
CA 39.3042 -10.666 57.5791
CA 19.0547 5.63999 44.1384
CA 28.4152 -38.5986 47.5935
CA 32.4061 -0.755974 51.2216
CA 24.1076 -22.492 76.8323
CA 13.4733 -34.9595 84.7854
CA 28.3529 -1.82108 47.501
CA 12.0827 -19.728 64.1508
CA 17.879 -31.1644 55.8145
CA 3.33295 -6.44678 50.9532
CA 3.55083 -6.0196 53.2104
CA 18.7085 -17.9594 41.4266
CA 31.7725 -10.7961 46.395
CA 35.1397 -4.50839 64.8964
CA 39.9483 -16.6107 64.7179
CA 1.20664 -12.1766 53.2656
CA 8.65923 -26.4051 39.8047
CA 11.0919 -0.253625 56.1414
CA 13.4449 -9.19303 44.9898
CA 37.9981 -24.9539 83.3226
CA 31.4804 7.41355 63.2459
CA 22.4707 -32.0907 55.6209
CA 15.0318 -13.923 18.8205
CA 38.1344 2.59042 57.4165
CA 35.5012 3.36801 52.6287
CA 34.626 -38.327 81.126
CA 29.9559 -19.0482 84.1772
CA 8.31625 -10.0743 5.40537
CA 36.2287 -31.0617 81.3083
CA 12.7594 -9.43809 50.5764
CA 29.9052 -21.5991 31.6448
CA 30.1227 -41.7155 47.3484
CA 22.8773 -19.3396 58.8727
CA 1.58229 -24.2746 52.1011
CA 18.6478 3.03379 38.9067
CA 18.8334 -18.4369 81.2963
CA 10.6431 -15.0961 70.388
CA 12.8444 -31.7602 54.5441
CA 17.9568 -26.821 58.329
CA 5.42836 -3.31935 62.0383
CA 37.1604 -17.1513 61.4267
CA 22.04 -26.4724 66.2089
CA 33.0065 -9.64104 43.9376
CA 34.858 -1.57227 61.9048
CA 16.1188 5.21333 54.7491
CA 12.3845 -9.90907 60.681
CA 5.56371 -7.77789 49.4902
CA 25.0245 -30.2313 67.2487
CA 27.6621 -18.5863 83.326
CA 20.3255 -4.95473 41.0752
CA 41.8996 -20.9635 47.2627
CA 15.3251 -17.9842 76.0049
CA 35.3617 -21.7188 62.6211
CA 33.2185 2.71011 45.7674
CA 41.3048 -26.3078 54.9228
CA 34.3662 -22.2592 60.7546
CA 6.68047 -22.8733 37.2761
CA 12.9769 -13.7633 13.2579
CA 27.0895 -25.8342 26.9856
CA 16.1852 -31.2391 51.698
CA 26.9199 -37.6529 49.6485
CA 6.50741 -9.39047 7.52085
CA 39.0821 -14.0483 63.8738
CA 35.5361 -27.1632 51.4122
CA 17.9221 -22.1882 33.4131
CA 29.2976 -26.4164 36.4773
CA 20.279 0.203624 39.913
CA 19.1637 -16.0879 31.501
CA 14.0561 -15.2326 84.2095
CA 20.5676 -14.1269 26.4436
CA 28.6597 -10.6466 54.7388
CA 17.9425 -7.86985 31.2342
CA 13.5997 -12.4925 19.2722
CA 34.4744 -19.0372 30.4181
CA 12.3792 -11.9182 65.527
CA 5.72412 -29.0139 55.4212
CA 2.25715 -4.74837 3.19814
CA 37.2614 -19.2676 25.7267
CA 14.3156 -40.127 53.073
CA 31.6064 -7.79883 57.2697
CA 6.63383 -23.9601 44.0695
CA 29.3812 -19.9225 69.4247
CA 11.92 -24.7008 64.3502
CA 27.1194 -27.0161 80.6934
CA 12.3644 -39.1678 50.6679
CA 17.4772 -13.7601 35.4704
CA 17.4997 -26.0895 78.782
CA 24.7648 -3.6501 52.8304
CA 8.73232 -8.75639 12.1368
CA 20.5621 -8.94689 59.6622
CA 13.281 -11.2836 14.5657
CA 40.6208 -23.2888 53.9679
CA 14.1168 -9.63411 80.6573
CA 8.62621 -32.8587 43.744
CA 12.6401 -37.4861 52.3773
CA 19.0469 -18.1963 24.8169
CA 20.2143 -0.668086 52.9007
CA 39.119 -12.7773 36.7157
CA 9.67056 -7.08548 56.0213
CA 45.9254 -26.4934 58.0559
CA 30.2773 -41.3908 52.7696
CA 30.7175 -15.2256 34.6448
CA 33.5254 -15.4692 94.8702
CA 20.545 -20.8505 62.2505
CA 23.1519 -27.9888 71.9328
CA 34.6332 -11.7648 31.627
CA 28.7429 -17.001 43.2724
CA 31.0353 -37.2772 81.1771
CA 13.5478 -21.6569 57.7195
CA 14.9691 -37.9894 54.5919
CA 19.1863 1.01609 53.8675
CA 26.717 -30.9067 64.2415
CA 37.4357 0.806755 53.3681
CA 12.7277 -14.6349 63.038
CA 31.9085 -38.6692 49.7203
CA 34.9178 -32.8171 81.8083
CA 32.6612 -23.5168 87.2281
CA 6.90247 -32.4136 54.6404
CA 23.8935 -8.39215 65.6239
CA 37.7792 -29.4464 43.2373
CA 24.3044 -17.402 54.8371
CA 32.1283 -44.0193 50.8342
CA 29.6457 -33.2843 49.0375
CA 21.6231 3.57451 38.6516
CA 34.0122 -0.58191 49.0373
CA 24.3869 -29.6723 64.4124
CA 14.4511 -26.6378 51.05
CA 18.3993 -29.5289 48.6367
CA 22.7557 6.0114 54.882
CA 20.0637 -13.6729 22.2943
CA 36.4364 -16.4067 72.0949
CA 17.4604 -16.0888 55.0497
CA 25.388 -21.1333 64.7876
CA 20.7398 -8.71061 51.1163
CA 29.2904 8.13868 38.7966
CA 32.9833 -19.8874 63.4436
CA 11.2899 -21.802 58.1044
CA 4.69981 -11.8485 4.63657
CA 29.6475 -13.1228 67.2902
CA 28.9383 -24.138 35.591
CA 32.0871 -41.5773 52.4206
CA 25.329 -30.2042 37.9888
CA 3.41513 -11.666 57.7745
CA 5.61458 -22.798 55.8089
CA 8.7013 -9.52979 15.1202
CA 38.5163 -12.6439 41.2839
CA 0.996434 -10.6565 42.3111
CA 17.8004 -18.1668 57.7478
CA 6.93319 -23.4637 59.937
CA 29.2851 -8.82185 69.0454
CA 16.8162 -9.58003 79.9472
CA 41.916 -12.8083 49.6183
CA 20.5243 -26.7568 52.707
CA 33.6934 -31.3607 77.7239
CA 32.4247 3.11752 59.3732
CA 10.6054 -40.3213 55.535
CA 39.3779 -11.574 39.9315
CA 20.1623 -29.1664 82.2685
CA 35.0164 -39.4437 52.8529
CA 19.6853 -6.4313 40.0241
CA 30.0283 2.27775 40.4655
CA 31.469 -26.879 55.0416
CA 19.9659 -22.2959 40.7367
CA 6.06373 -10.8315 52.9442
CA 26.8295 -17.2217 57.4242
CA 31.7663 -27.5737 88.7489
CA 38.6599 -22.3552 39.9235
CA 26.6561 -24.9208 86.8109
CA 37.0491 -9.46431 49.9607
CA 9.4841 -14.4336 68.5681
CA 25.3797 -38.2529 52.4619
CA 12.9077 -13.4305 46.5716
CA 20.6215 -3.09304 39.8408
CA 44.4328 -9.09555 51.7212
CA 31.7478 -9.27475 59.1882
CA 15.9509 -15.0565 78.0371
CA 42.6956 -38.3371 45.9475
CA 20.9654 6.29386 54.5359
CA 10.308 -3.6699 60.6014
CA 9.38837 -18.7468 71.1617
CA -3.144 -21.4967 51.5224
CA 15.8284 -19.6992 85.6137
CA 30.1687 -28.7096 55.8143
CA 13.7347 -34.5203 80.2027
CA 16.3798 -20.0319 77.9807
CA 38.5717 -20.8114 30.0007
CA 23.533 -16.8476 39.9332
CA 26.572 -21.0134 57.3682
CA 30.646 -17.0838 41.2089
CA 28.8051 -7.66226 45.6603
CA 14.0726 -12.5532 34.3565
CA 19.5923 -17.4419 38.226
CA 9.95636 -8.00618 1.01564
CA 36.6224 -0.594421 57.1514
CA 21.8246 -18.6532 48.5777
CA 27.6937 -39.3247 49.2637
CA 3.2619 -10.2391 52.1765
CA 31.1872 -7.40868 49.6761
CA 33.8079 -15.9655 44.6736
CA 15.2579 -26.3682 64.9116
CA 33.7268 -24.6351 51.6239
CA 13.3523 -40.7273 50.6159
CA 32.9657 3.61498 52.7008
CA 21.1088 -8.2062 38.0025
CA 38.3796 -11.3413 60.7716
CA 26.0021 5.02641 53.8214
CA 24.5963 -10.1568 66.2679
CA 7.41538 -7.19062 2.80517
CA 11.5298 -6.25724 54.5128
CA 16.7218 3.68316 40.5416
CA 26.1075 -24.5844 78.7117
CA 25.0874 -24.9517 62.1265
CA 32.7489 -2.36823 58.8699
CA 29.5281 -11.3197 59.3809
CA 23.8171 -14.2951 51.8217
CA 29.6881 -23.9278 80.4683
CA 35.4379 -29.562 40.4458
CA 35.1242 -41.3925 48.8099
CA 27.6276 5.56759 34.5547
CA 23.0735 -28.5761 77.542
CA 3.41688 -27.1041 42.8054
CA 28.7953 -22.2356 34.2917
CA 27.5226 -30.1438 54.8309
CA 20.8189 -11.2389 81.0117
CA 28.5054 0.627075 60.1269
CA 15.2893 -13.3834 77.4391
CA 35.2287 -19.6028 42.2193
CA 29.9951 -32.7929 80.8715
CA 30.4486 -13.1427 64.7362
CA 43.9452 -24.6877 59.2012
CA 17.3111 -11.8616 38.1527
CA 15.359 -14.6212 44.2797
CA 20.3171 -16.4051 83.0321
CA 12.6686 -10.9608 69.6684
CA 26.8157 -22.1046 67.2587
CA 40.3175 -12.1115 56.0183
CA 42.228 -18.7557 57.3309
CA 18.6696 -24.639 85.721
CA 23.4837 -5.45715 62.5228
CA 24.7459 -23.2064 35.7342
CA 39.0881 -21.8737 85.5296
CA 20.0272 5.03792 32.7939
CA 33.0095 -14.2423 32.6214
CA 27.1025 -5.09318 56.3731
CA 36.664 -3.27907 51.4973
CA 10.3985 -15.5238 65.5911
CA 30.6218 -7.02802 79.7234
CA 17.9189 -8.86981 36.6587
CA 21.2101 7.3486 34.4272
CA 22.8735 -7.73706 60.1007
CA 39.8785 -7.96121 57.9827
CA 25.9494 -10.555 55.9358
CA 26.109 -12.7577 80.0765
CA 6.46803 -10.9432 5.3614
CA 6.15206 -23.688 40.9864
CA 28.8461 -17.1357 57.1686
CA 15.7632 -17.5407 21.0663
CA 32.3345 -26.6201 28.4063
CA 33.4324 -7.73711 47.0974
CA 38.2796 -9.08804 64.2769
CA 34.5207 -20.4145 60.1279
CA 14.2833 -8.12275 57.3969
CA 14.8061 -19.8591 57.833
CA 39.4338 -24.153 80.5041
CA 18.4656 -6.01992 46.2421
CA 6.99787 -35.4101 54.2769
CA 4.18486 -8.04927 46.6504
CA 25.6608 -20.4283 82.5466
CA 13.7474 -14.8566 17.5959
CA 36.6794 -19.9854 84.1354
CA 36.7329 -16.4801 59.5268
CA 17.1575 -41.2179 78.0774
CA 39.4373 -20.225 83.7091
CA 38.839 -19.6649 40.237
CA 33.5998 2.20116 65.1707
CA 17.458 -16.4503 49.9665
CA 16.048 -26.9954 58.8474
CA 9.8535 -38.9087 52.1601
CA 31.8517 -18.1079 31.0116
CA 36.7653 -38.5728 45.2864
CA 32.5929 -12.2706 56.9186
CA 17.9467 -10.2333 65.9513
CA 19.9544 -23.6225 74.4015
CA 5.31668 -8.44466 16.7737
CA 15.1502 -14.947 51.2014
CA 27.5984 -20.3707 90.9752
CA 5.77712 -10.7332 20.2043
CA 18.1648 -11.6358 57.3825
CA 18.8395 -26.4821 49.29
CA 21.1783 -28.488 77.9241
CA 10.2028 -26.0588 58.2821
CA 27.7318 -13.2168 68.1591
CA 1.11089 -12.3091 40.0921
CA 10.4844 -10.5816 51.5679
CA 37.9282 -9.17751 66.8527
CA 48.025 -23.714 54.3841
CA 10.9281 -32.3459 52.9058
CA -4.84999 -25.2515 52.7954
CA 3.71984 -27.0689 56.1817
CA 11.5241 -25.4218 37.971
CA 35.6884 -26.0961 89.7964
CA 34.5684 -19.4398 45.3006
CA 33.7702 -17.7577 58.087
CA 33.589 -9.00925 41.7597
CA 14.4512 -16.7249 55.377
CA 19.0603 -28.418 60.0702
CA 27.9086 -21.7369 59.0393
CA 36.3633 -39.2924 51.4336
CA 18.1067 2.07053 57.6439
CA 2.61071 -14.9087 59.3054
CA 38.3595 -25.3913 43.5417
CA 10.6712 -23.9207 60.0413
CA 36.5562 -25.0964 85.6402
CA 31.441 -0.50219 39.1681
CA 3.05722 -11.2978 47.4286
CA 41.5152 -18.7492 89.8423
CA 39.6749 -23.2178 50.9964
CA 21.0168 -14.634 53.2742
CA 21.402 5.81212 37.5809
CA 9.60346 -30.2433 41.0446
CA 22.8645 -29.6609 65.8496
CA 24.1748 -14.3971 48.8184
CA 6.38143 -9.31378 11.0846
CA 8.55843 -29.3151 42.9974
CA 21.6501 -13.9643 50.9065
CA 42.9568 -16.1067 55.4234
CA 20.0939 -25.5725 38.8644
CA 26.7701 -34.309 48.2355
CA 17.1515 -27.4079 83.1252
CA 18.7419 -3.07171 39.7416
CA 14.7304 -23.4901 14.8041
CA 29.6592 -31.3354 84.1946
CA 37.0347 -0.34748 55.3966
CA 5.59774 -18.9079 68.3123
CA 13.5864 -5.27306 77.8285
CA 29.1514 3.40142 38.2325
CA 35.3761 -18.0618 69.4354
CA 38.3117 -27.4847 53.9284
CA 19.0351 -9.15182 67.1815
CA 30.89 7.95734 37.6685
CA 25.3983 -25.5475 80.2145
CA 44.3076 -11.7006 53.5008
CA 13.4859 -17.0424 45.8475
CA 28.19 -35.3293 81.4662
CA 38.852 -21.6403 49.3557
CA 31.0803 -6.93383 44.1066
CA 10.8827 -10.9385 60.4531
CA 26.8031 -27.5723 66.4531
CA 34.1001 -8.87578 59.5599
CA 13.9337 -29.3642 55.8033
CA 12.7318 -35.2241 76.509
CA 5.5113 -24.7859 57.2324
CA 38.2733 -14.6639 68.9353
CA 44.3909 -10.21 49.2479
CA 17.857 -2.61717 49.0293
CA 44.0283 -20.3261 44.3283
CA 38.5808 -18.8755 30.345
CA 40.0776 -11.2589 51.6874
CA 3.63447 -14.9266 55.3815
CA 7.10476 -27.6436 57.2082
CA 38.127 -25.4125 51.7558
CA 44.3888 -18.7114 55.3527
CA 20.4497 -6.3877 77.8729
CA 21.033 -26.2616 58.5079
CA 40.5275 -25.0946 87.624
CA 20.3177 -4.58657 48.3326
CA 5.91119 -27.1898 58.5398
CA 16.7763 -20.7652 29.1002
CA 25.801 -23.6365 91.194
CA 24.2837 -24.3973 75.8482
CA 21.3591 -20.1847 45.6253
CA 34.8021 -17.2756 53.2618
CA 22.639 -4.06422 48.8652
CA 18.2378 -18.4449 74.2267
CA 25.049 -13.2349 65.2598
CA 6.47464 -7.93506 44.8377
CA 6.99779 -8.63989 15.8485
CA 38.1966 -18.1719 59.4394
CA 41.8944 -21.3004 64.0694
CA 41.3481 -7.49613 45.2797
CA 23.0474 -15.9037 80.5355
CA 26.8656 6.95394 37.3128
CA 28.6894 -26.0835 82.2645
CA 30.5154 1.41674 58.2269
CA 28.6453 -23.5943 68.8082
CA 7.0437 -27.2501 39.1247
CA 33.3382 -25.6466 87.7656
CA 29.8472 -9.20662 76.7965
CA 27.695 -7.15745 68.5987
CA 45.1433 -24.2147 56.9174
CA 15.118 -25.3256 38.8389
CA 15.1481 -39.5352 78.6615
CA 30.9225 -0.79047 46.8325
CA 0.295515 -22.5376 52.2242
CA 41.6369 -22.2608 41.7031
CA 22.7115 -0.809521 63.3983
CA 29.2722 -28.8685 40.2696
CA 28.5329 -23.7554 77.8961
CA 39.9197 -16.1055 41.2802
CA 8.48151 -11.5799 46.7147
CA 28.4739 -28.5123 84.8035
CA 22.3445 -4.97552 41.2367
CA 33.423 -13.8492 57.26
CA 17.1014 -19.8553 16.0608
CA 41.355 -25.8545 51.4937
CA 20.4798 -28.7893 40.3045
CA 17.7768 -19.8832 22.9177
CA 18.5691 -8.09317 82.5709
CA 24.2253 -15.6492 85.0534
CA 20.2154 -13.9856 29.8737
CA 20.9316 -21.6056 43.8061
CA 30.1839 -26.8387 28.5163
CA 38.2007 -19.4685 88.8533
CA 31.1868 -20.0293 70.3753
CA 25.6942 -7.86993 78.785
CA 23.0876 -33.3613 80.8338
CA 13.553 -4.38566 70.7389
CA 11.0187 -5.59963 69.1979
CA 31.8945 -16.8226 72.6475
CA 42.8942 -18.2593 60.3845
CA 21.4856 -29.3979 79.5334
CA 10.1467 -9.13635 60.0537
CA 28.9107 4.96528 55.1565
CA 20.0416 -7.04824 64.034
CA 39.2084 -38.2273 46.3137
CA 31.0547 4.77605 53.3959
CA 30.2426 -26.1436 34.7472
CA 24.4277 8.78468 36.7411
CA 12.5188 -21.9823 31.6988
CA 38.113 -6.86772 44.7695
CA 41.7872 -17.6639 45.8212
CA 26.8505 -17.5647 39.0845
CA -3.55157 -23.022 49.3553
CA 8.56134 -15.9188 72.5481
CA 8.76195 -8.09463 49.302
CA 13.7206 -28.5678 57.6713
CA 10.7312 -20.9416 59.9457
CA 22.3647 -18.2637 70.7827
CA 45.5934 -34.9839 48.0749
CA 40.2142 1.50442 55.8854
CA 33.177 -40.995 80.5321
CA 4.89429 -15.6791 53.5002
CA 30.7248 -22.677 33.5439
