489

CA 23.9536 -20.6846 36.8744
CA 20.9274 -15.7328 29.977
CA 32.3113 -15.8052 74.5641
CA 33.181 -14.799 46.9955
CA 32.4456 -22.2062 30.0812
CA 12.146 -25.8722 39.9985
CA 41.0375 -27.4736 56.8987
CA 25.1953 -29.0951 86.3345
CA 35.3313 -23.1142 31.9136
CA 20.1198 -24.6586 82.3042
CA 40.882 -21.0529 48.9498
CA 25.9927 -34.754 82.3794
CA 39.1034 -37.0485 54.4741
CA 6.04042 -2.88535 59.7183
CA 19.9093 -31.9163 55.8355
CA 41.7307 -16.5714 45.0779
CA 16.9929 -10.9837 67.5614
CA 5.32285 -7.36335 3.28258
CA 12.1237 -30.0821 53.3707
CA 19.6655 -18.406 38.6006
CA 26.5936 -15.3567 39.0014
CA 17.987 -23.6741 38.7971
CA 11.6766 -32.5854 45.1639
CA 22.2062 -13.3895 56.7555
CA 27.0254 4.90652 60.0016
CA 3.57696 -8.00702 8.00346
CA 39.5919 -28.2445 58.4596
CA 42.1267 -29.8754 56.9537
CA 24.4346 -20.2947 66.1309
CA 47.919 -22.6828 62.7486
CA 27.6392 1.09897 38.1337
CA 26.1554 -7.0078 41.7013
CA 28.8118 3.92053 60.4408
CA 26.7171 -10.8523 47.5085
CA 30.4023 -20.1288 57.6809
CA 14.0804 -5.84683 67.5585
CA 22.2495 -24.6216 27.2466
CA 16.1224 -34.4318 54.2124
CA 21.7533 -10.967 30.2051
CA 45.761 -15.4245 52.9944
CA 19.9805 -21.464 81.2729
CA 12.3871 -3.78241 45.5042
CA 6.1116 -9.80041 12.7094
CA 27.5649 -16.8975 43.8195
CA 22.5627 -8.02527 61.3327
CA 27.4049 -37.6112 54.9858
CA 35.5633 4.63418 75.1625
CA 40.7498 -11.2491 69.0172
CA 14.7759 -22.3503 54.5927
CA 0.917507 -11.621 52.8455
CA 21.1083 -23.8602 63.8307
CA -2.3445 -17.0824 56.0621
CA 23.4905 -32.2728 40.5277
CA 17.896 -33.4662 59.1224
CA 22.14 -1.19018 53.4186
CA 20.7162 -21.8943 62.786
CA 39.3109 -10.2932 51.8387
CA 45.0333 -15.4995 48.6181
CA 8.41656 -3.33461 60.072
CA 12.3367 -17.2305 65.2048
CA 40.0351 -0.0317115 66.1881
CA 33.1855 -19.9649 92.9643
CA 24.0481 -26.0801 73.0131
CA 38.9802 -29.2215 52.0306
CA 48.5107 -19.5243 52.8115
CA 32.1419 -41.4397 49.8796
CA 24.5573 -25.1486 65.5836
CA 12.729 -14.3152 48.7503
CA 15.0318 -13.923 18.8205
CA 34.0536 -4.4906 40.8074
CA 35.8871 -9.75834 48.062
CA 47.3686 -22.8733 56.1136
CA 22.6727 -26.0828 67.8023
CA 8.31625 -10.0743 5.40537
CA 11.5346 -32.099 49.8955
CA 14.806 -4.25951 47.5969
CA 22.5374 -30.9031 84.3062
CA 36.1007 0.532514 67.1271
CA 23.2505 -21.3982 71.21
CA 15.2017 -14.7361 22.1861
CA 19.4028 -7.82097 44.9198
CA 16.201 -2.94606 43.8064
CA 9.52732 -32.4554 49.0136
CA 22.5375 -21.6516 75.359
CA 17.9568 -26.821 58.329
CA 3.98651 -0.647972 62.4576
CA 30.5371 -39.1897 46.3597
CA 37.7746 -3.97436 64.787
CA 39.4732 -15.3592 71.8784
CA 6.89336 -12.0726 17.0278
CA 16.5793 -3.25272 48.6975
CA 15.2275 -3.43867 42.2897
CA 18.3419 -31.4443 37.5314
CA 14.4262 -2.36848 46.3364
CA 12.6897 -7.87937 52.181
CA 37.0557 -32.8369 56.343
CA 11.6676 -11.988 22.8152
CA 10.4205 -30.4411 50.2589
CA 29.709 -33.0917 39.6002
CA 30.1807 10.3325 34.5176
CA 46.6509 -17.043 47.0075
CA 11.6768 -4.7388 51.3148
CA 34.6846 -10.4488 74.6299
CA 16.5477 -31.18 83.8989
CA 29.6169 3.86566 36.9604
CA 16.7429 -17.4355 85.1684
CA 13.6418 -12.4856 62.7901
CA 27.6669 -13.6889 60.3046
CA 39.0821 -14.0483 63.8738
CA 23.6164 -23.1637 63.1764
CA 9.48654 -19.761 56.7575
CA 24.3762 -36.2452 81.434
CA 41.6768 -23.4438 32.7228
CA 20.4127 -9.41714 65.0277
CA 18.3658 -23.5686 59.3998
CA 40.4753 -4.7634 53.5575
CA 29.718 -6.77093 40.3655
CA 27.5436 -37.1208 49.7132
CA 12.6289 -31.8757 55.3979
CA 34.4744 -19.0372 30.4181
CA 12.3792 -11.9182 65.527
CA 35.918 -17.2657 43.2253
CA 39.9844 -36.0551 56.7107
CA 20.2879 1.3575 52.1549
CA 9.4469 -10.8645 61.026
CA 2.27281 -18.503 70.6105
CA 6.63383 -23.9601 44.0695
CA 31.843 -33.6402 42.5195
CA 30.4723 -30.1332 60.5773
CA 30.5495 -10.6194 72.8741
CA 11.3713 -14.7771 44.0337
CA 8.55818 -37.8626 53.6951
CA 8.1127 -18.616 49.3723
CA 24.7648 -3.6501 52.8304
CA 8.73232 -8.75639 12.1368
CA 41.9169 -12.5203 68.4315
CA 18.1018 -18.9917 26.3939
CA 34.5951 -24.7289 37.4683
CA 20.0919 -20.1263 69.8505
CA 8.62621 -32.8587 43.744
CA 12.6401 -37.4861 52.3773
CA 19.0469 -18.1963 24.8169
CA 20.2143 -0.668086 52.9007
CA 32.4727 -7.9312 41.0615
CA 4.80602 -9.802 41.5169
CA 45.9254 -26.4934 58.0559
CA 30.2773 -41.3908 52.7696
CA 30.7175 -15.2256 34.6448
CA 8.0751 -13.9739 20.5022
CA 30.5149 7.91173 60.7897
CA 27.4356 -30.9993 48.6119
CA 41.9194 -33.8262 87.0416
CA 16.0844 -4.90478 65.6854
CA 31.0353 -37.2772 81.1771
CA 13.3875 -2.6544 71.407
CA 18.582 -22.0075 40.4082
CA 37.1639 -21.7689 70.8064
CA 9.49232 -16.9245 66.2617
CA 14.0758 -2.98263 68.9865
CA 12.7277 -14.6349 63.038
CA 48.1918 -25.4993 61.6532
CA 13.9917 -9.21588 40.325
CA 39.0288 -8.4859 50.117
CA 37.9195 -37.4826 52.307
CA 38.6879 -22.3559 62.9351
CA 25.9432 -10.835 78.0187
CA 32.5079 -23.9031 82.9889
CA 30.3439 -23.9728 86.8503
CA 34.2178 -28.1737 55.135
CA 28.591 -11.8898 65.1646
CA 19.0469 -5.51294 52.0665
CA 35.112 -16.7509 63.6293
CA 14.4511 -26.6378 51.05
CA 27.8411 -8.77703 44.4838
CA 16.9734 -29.9659 36.4836
CA 19.7783 -0.332124 32.4053
CA 37.8681 -16.5003 60.6739
CA 41.542 -12.9629 66.6712
CA 17.1245 -16.6341 73.6228
CA 21.8093 -23.1725 81.7776
CA 37.9407 -15.2121 38.8533
CA 9.34992 -34.392 45.3261
CA 14.0136 -34.0959 40.2513
CA 4.69981 -11.8485 4.63657
CA 29.6475 -13.1228 67.2902
CA 35.804 -36.6413 86.7171
CA 24.5681 -5.10219 58.1826
CA 14.0124 -18.1337 57.6154
CA 47.4699 -28.7443 57.9099
CA 27.385 -6.78797 58.1077
CA 36.2155 -31.1536 50.0718
CA 38.5163 -12.6439 41.2839
CA 0.996434 -10.6565 42.3111
CA 37.3224 -26.6304 37.0564
CA 6.93319 -23.4637 59.937
CA 29.083 -23.1354 58.5728
CA 40.4741 -30.4457 51.9978
CA 37.1431 -30.5417 69.0849
CA 22.0649 -16.6474 52.1254
CA 24.1382 -5.52105 55.8624
CA 17.7598 -29.8246 39.5269
CA 32.13 -22.1674 79.9575
CA 39.6745 -22.5446 37.9827
CA 27.7499 -15.9688 36.2179
CA 15.4743 -21.2734 62.9272
CA 19.6853 -6.4313 40.0241
CA 17.5545 -15.8951 22.3039
CA 32.1291 2.83558 33.224
CA 11.8277 -11.9142 52.1698
CA 21.1399 -28.7287 68.9342
CA 32.2035 -25.0765 58.9901
CA 8.28955 -19.8221 66.7253
CA 2.4208 -13.9198 53.5514
CA 26.6561 -24.9208 86.8109
CA 20.7208 -20.6581 50.0023
CA 25.2475 -4.99766 78.465
CA 22.6377 -15.2721 70.6055
CA 12.9077 -13.4305 46.5716
CA 32.5324 -17.996 82.7709
CA 43.557 -27.3461 54.0026
CA 19.1355 -27.9297 71.0109
CA 39.5334 -2.89019 42.2756
CA 31.4479 -24.3232 76.7078
CA 29.3554 -16.4314 71.4009
CA 28.465 -11.7501 60.262
CA 18.1717 -26.5942 62.8295
CA -3.144 -21.4967 51.5224
CA 7.42618 -19.4535 64.5075
CA 41.3557 -15.4459 69.1474
CA 21.954 -13.855 37.8161
CA 31.4285 -19.1669 44.8526
CA 23.3425 -25.2445 94.8952
CA 23.533 -16.8476 39.9332
CA 19.4752 -30.5176 41.6575
CA 7.98563 -30.431 44.9647
CA 13.861 -22.4809 38.1729
CA 34.0231 -14.6704 83.4561
CA 22.3493 -6.9009 35.5078
CA 9.95636 -8.00618 1.01564
CA 36.7263 -10.8159 41.5393
CA 29.5611 -26.7396 77.2875
CA 9.66742 -29.6434 55.7921
CA 3.2619 -10.2391 52.1765
CA 31.1872 -7.40868 49.6761
CA 49.4891 -24.9501 58.1423
CA 17.2774 -10.8857 45.6775
CA 28.2004 -24.7386 77.9328
CA 31.9867 -25.2181 33.4696
CA 31.418 -11.2449 47.0744
CA 32.9828 -35.7302 40.2206
CA 19.8961 -8.40853 30.4836
CA 26.0021 5.02641 53.8214
CA 3.20696 -6.25022 7.62762
CA 7.41538 -7.19062 2.80517
CA 15.3743 -34.7599 72.6458
CA 15.322 -12.7461 37.6129
CA 42.2599 -21.3392 37.7599
CA 30.4675 -30.7623 65.6771
CA 33.4308 -0.793638 39.0115
CA 30.5815 -21.7357 65.9619
CA 25.5862 -3.06241 44.536
CA 37.4244 -4.71141 62.924
CA 35.4379 -29.562 40.4458
CA 35.1242 -41.3925 48.8099
CA 14.567 -27.9431 53.7219
CA 39.2107 -25.7287 33.0336
CA 38.794 -19.3561 73.8828
CA 42.066 -8.6937 66.6923
CA 19.8277 -29.9161 34.2586
CA 20.8189 -11.2389 81.0117
CA 27.7711 -14.8781 75.2119
CA 20.371 -27.3982 64.661
CA 22.7238 -0.639315 34.1535
CA 28.5671 -5.0625 42.0666
CA -3.36566 -15.5466 53.6834
CA 35.4294 -17.0313 60.2787
CA 18.0865 -4.20715 65.0118
CA 43.3627 -35.4851 46.3241
CA 36.077 -30.7562 81.0851
CA 23.7162 -8.75582 50.0546
CA 26.8157 -22.1046 67.2587
CA 44.4963 -11.0952 50.7732
CA 32.1841 -26.9538 57.956
CA 33.3689 -19.0603 60.9578
CA 31.6195 -39.8127 57.6329
CA 11.7197 -12.3202 49.1327
CA 42.1723 -11.2852 51.1924
CA 39.5209 -19.7203 60.7835
CA 27.1655 7.74561 35.5175
CA 21.7793 -6.99556 37.9102
CA 36.664 -3.27907 51.4973
CA 20.2442 -9.97025 47.9007
CA 10.2254 -42.0211 51.0244
CA 33.4031 2.22891 70.8681
CA 19.2046 -21.5423 35.527
CA -1.08335 -15.8353 57.7023
CA 30.0077 -41.4977 55.4101
CA 14.081 -33.0164 86.9964
CA 36.2497 2.5665 72.9527
CA 29.9798 -7.94436 60.5766
CA 38.0416 -25.9348 86.8229
CA 39.7655 -20.7127 30.074
CA 15.7632 -17.5407 21.0663
CA 7.89849 -21.8863 49.1535
CA 11.2151 -19.5034 54.7043
CA 38.2796 -9.08804 64.2769
CA 37.182 -20.2646 88.8766
CA 15.7636 -13.7454 81.9505
CA 20.6773 -23.689 58.3063
CA 12.6404 -35.8134 43.0119
CA -3.52693 -15.3922 57.4815
CA 26.9411 -26.2928 30.699
CA 11.3271 -14.097 66.0042
CA 30.8037 5.55277 35.3365
CA 34.6357 -35.3476 82.6305
CA 27.569 -3.36616 47.4312
CA 41.1759 -5.82138 50.4084
CA 30.4807 -32.5552 50.0149
CA 39.4373 -20.225 83.7091
CA 38.839 -19.6649 40.237
CA 10.894 -33.1735 41.1434
CA 26.8682 -23.8578 30.6449
CA 29.7009 1.70647 42.3218
CA 18.4919 -20.3492 25.1384
CA 25.9576 -3.02616 54.3524
CA 16.932 -4.95377 40.7081
CA 17.4007 -30.6909 59.085
CA 38.8788 -13.6713 66.2522
CA 18.1713 -27.8011 80.3922
CA 5.31668 -8.44466 16.7737
CA 42.7045 -22.8548 41.0895
CA 26.238 -12.5894 59.9586
CA 50.8631 -20.8482 52.687
CA 18.1648 -11.6358 57.3825
CA 25.985 -15.9736 43.7351
CA 24.6933 -22.2938 68.1349
CA 33.0009 -7.94158 50.5798
CA 27.7318 -13.2168 68.1591
CA 33.4546 -29.0795 69.8119
CA 44.1605 -13.2106 54.3353
CA 41.3679 1.14518 64.5306
CA 48.025 -23.714 54.3841
CA 10.9281 -32.3459 52.9058
CA 35.1345 -19.633 87.2454
CA 17.6562 -21.1693 72.2587
CA 24.4626 -0.0178258 36.9294
CA 7.95234 -28.249 39.5838
CA 14.8008 -12.9202 45.943
CA 16.1865 -17.0733 78.1336
CA 16.766 -2.51556 56.278
CA 35.8187 -15.2416 43.7567
CA 16.9699 -19.0541 75.677
CA 9.5222 -10.1658 48.9482
CA 17.2736 -9.61866 61.3354
CA 5.85766 -14.5923 18.6355
CA 3.67973 -6.1311 54.4373
CA 38.3595 -25.3913 43.5417
CA 27.6922 -12.0602 42.6327
CA 36.5562 -25.0964 85.6402
CA 42.9336 -28.5727 51.3755
CA 3.05722 -11.2978 47.4286
CA 17.7281 -22.5642 84.2635
CA 9.23425 -17.2645 52.6703
CA 23.102 -26.3101 79.6357
CA 40.0838 -13.0209 67.7968
CA 24.8817 -23.2637 28.3194
CA 22.8645 -29.6609 65.8496
CA 12.7451 -25.7224 63.3269
CA 34.4258 -33.327 83.9005
CA 34.0751 -17.6693 84.1695
CA 19.0186 -20.0186 58.1055
CA 18.9385 -31.1128 71.2902
CA 29.8099 -31.3495 71.2483
CA -4.67368 -19.7365 50.6321
CA 26.6041 -39.0063 83.2595
CA 19.1357 -15.6888 24.5526
CA 14.7304 -23.4901 14.8041
CA 30.3148 -24.8097 34.2002
CA 21.3665 -13.8805 64.1505
CA 5.59774 -18.9079 68.3123
CA 36.3133 -16.6149 82.4959
CA 33.2215 0.740132 69.6508
CA 28.4167 -12.6675 50.4091
CA 35.2977 -36.5064 54.4697
CA 21.2252 3.09258 56.4601
CA 19.9855 -26.0837 68.8475
CA 27.8761 -31.3276 79.2269
CA 19.7021 -11.1699 65.433
CA 21.0111 -30.4298 71.4527
CA 30.8214 -2.51994 58.4952
CA 29.055 -23.081 35.7143
CA 31.0803 -6.93383 44.1066
CA 32.9522 -30.0971 55.9094
CA 20.8687 -16.8866 49.8098
CA 26.2908 -31.3538 77.6519
CA 16.9684 -28.8648 40.8604
CA 34.2657 -18.2863 38.1638
CA 24.1218 -24.2789 91.613
CA 33.1007 -5.77316 50.4796
CA 34.0936 -22.0886 49.7319
CA 24.8985 -22.2253 72.2215
CA 44.0283 -20.3261 44.3283
CA 20.9629 -18.7304 25.4518
CA 0.378285 -20.5599 60.5731
CA 20.8938 -5.61728 80.4898
CA 8.18623 -28.8497 62.7893
CA 38.127 -25.4125 51.7558
CA 29.5448 6.9711 36.3041
CA 29.4085 -28.4913 85.3743
CA 28.9291 -31.813 49.2975
CA 19.4909 -21.5676 58.96
CA 35.7774 -34.5327 86.3021
CA 30.6513 -33.8917 78.843
CA 47.487 -21.1242 61.8803
CA 9.66629 -43.0714 54.0285
CA 42.1277 -8.44898 63.7178
CA 31.4871 -17.7289 40.4234
CA 19.5613 -23.1989 34.5362
CA 23.0622 -12.6178 46.431
CA 18.2378 -18.4449 74.2267
CA -0.332221 -14.1586 51.4795
CA 35.9217 -37.794 48.6993
CA 11.526 -7.15242 68.407
CA 29.2826 -23.8144 81.0839
CA 42.3986 -20.0825 30.8544
CA 43.6103 -23.1347 45.4065
CA 27.8814 7.89347 52.5343
CA 11.9291 -13.782 81.8724
CA 18.9074 -22.9842 61.7674
CA 0.581583 -8.65141 51.2145
CA 8.89228 -24.3516 64.121
CA 36.517 -17.8032 79.9061
CA 36.8583 -31.1387 35.3523
CA 29.8472 -9.20662 76.7965
CA 24.41 -31.7537 60.712
CA 33.7126 -29.6751 58.0043
CA 15.118 -25.3256 38.8389
CA 8.61637 -20.9787 55.1621
CA 30.5385 -30.023 67.9126
CA 31.8892 -11.0396 49.5206
CA 32.1434 -28.0989 86.9504
CA 23.2518 -18.4864 64.4732
CA 33.2917 -37.2115 54.3032
CA 34.7105 -2.9444 39.6457
CA 8.1727 -9.33057 10.3141
CA 8.48151 -11.5799 46.7147
CA 12.0855 -5.06656 68.5357
CA 33.2499 -9.46915 79.9989
CA 33.423 -13.8492 57.26
CA 17.1014 -19.8553 16.0608
CA 41.355 -25.8545 51.4937
CA 4.67237 -22.2046 70.7612
CA 17.7768 -19.8832 22.9177
CA 6.02827 -28.4482 53.0991
CA 38.0566 -31.4789 78.9737
CA 27.5087 -33.2384 47.3002
CA 39.1478 -34.2364 84.6809
CA 16.4063 -11.1484 18.2653
CA 45.2259 -20.5558 29.6138
CA 29.2533 -28.0571 53.8784
CA 24.9948 -28.8749 75.8921
CA 23.0876 -33.3613 80.8338
CA 15.7211 -27.3271 61.3313
CA 19.0946 -19.62 83.1779
CA 7.797 -31.9576 57.6284
CA 3.56543 -8.3537 39.1774
CA 13.7417 -16.4622 23.2937
CA 14.2759 -34.6475 76.528
CA 28.9107 4.96528 55.1565
CA 26.164 -21.6578 60.4157
CA 39.2084 -38.2273 46.3137
CA 30.5678 -24.9574 61.7712
CA 22.4134 -24.9321 39.9989
CA 52.2229 -19.7982 54.6075
CA 32.9677 -22.4964 96.2347
CA 6.72999 -22.4028 54.0627
CA 16.1308 -25.1531 60.1054
CA 35.443 -28.8161 36.808
CA 18.8076 3.60506 53.1426
CA 22.7835 -17.9202 53.6191
CA 37.9076 -3.57464 66.9204
CA 22.0633 -24.5092 66.355
CA 22.9109 -3.33958 82.6311
CA 6.97699 -8.00207 11.9261
CA 14.1466 -14.6212 61.3142
CA 9.98343 -4.13325 64.4624
CA 19.8717 -20.355 66.154
CA 33.8643 -31.376 39.328
CA 36.4932 -2.84316 65.7222
