489

CA 27.7461 -15.9686 30.6206
CA 11.8233 -28.0936 33.5514
CA 50.7803 -20.0439 56.0591
CA 4.74467 -24.9342 45.6439
CA 13.1883 -27.5119 42.8026
CA 37.7463 -2.39103 47.938
CA 50.0244 -14.3011 50.8378
CA 36.1846 -31.5177 38.5003
CA 40.0244 -14.5036 76.2294
CA 49.4889 -28.9387 66.6526
CA 24.7981 -18.1015 32.8805
CA 31.5132 -4.69072 44.5483
CA 28.7793 -24.0862 66.6069
CA 33.9055 -33.0523 61.8531
CA 23.4338 -12.0203 72.1878
CA 45.0874 -6.59332 62.2998
CA 24.9051 -14.9319 73.5307
CA 3.9722 -5.69178 2.69331
CA 49.8155 -30.9955 54.3077
CA 30.6672 -22.7076 90.3085
CA 12.0994 -33.7501 48.9788
CA 24.9953 -15.9435 30.4112
CA 43.8062 -3.65051 59.9589
CA 36.3464 -22.047 31.5026
CA 48.9955 -28.4956 62.487
CA 22.9554 -12.7058 25.3177
CA 39.37 -37.5003 64.8235
CA 2.32566 -10.8445 4.40662
CA 13.0567 -24.1279 35.319
CA 47.919 -22.6828 62.7486
CA 21.4697 -28.2007 81.7814
CA 51.8074 -23.2982 67.091
CA 7.02553 -14.0597 58.5866
CA 21.1182 -28.5402 77.5789
CA 32.6511 -14.2973 83.3388
CA 28.343 -31.584 70.6321
CA 35.5123 0.860516 45.621
CA 9.2878 -4.839 2.35005
CA 26.6708 -17.3636 33.0722
CA 29.0588 -22.167 66.6281
CA 36.2042 -20.1385 60.7919
CA 24.9323 -15.6359 48.0778
CA 36.5219 -33.5973 37.9327
CA 16.7724 -29.8364 63.8222
CA 3.97791 -11.6603 22.9298
CA 13.4839 -27.3595 38.7804
CA 25.5063 -18.0816 29.8842
CA 15.413 -27.7377 56.4987
CA 31.9189 -4.68877 60.5481
CA 35.1023 -6.38248 46.6131
CA 24.7275 -19.0451 72.8868
CA 3.34225 -15.1103 57.9177
CA 8.60186 -22.1991 39.934
CA 33.8545 2.33414 60.3823
CA 8.47569 -18.968 50.7423
CA 27.6482 -14.2241 71.5402
CA 4.35209 -6.17942 51.9593
CA 28.4009 -39.453 51.6662
CA 5.00488 -6.21749 4.92778
CA 8.0347 -17.1675 42.9245
CA 11.7001 -10.4559 3.24736
CA 29.7322 -35.1719 53.5848
CA 40.5085 -8.97233 64.6658
CA 35.9425 -13.0471 48.495
CA 47.8326 -7.3073 59.9574
CA 15.1763 -8.18642 63.4063
CA 38.3585 -24.5875 31.4692
CA 26.0069 -11.6791 55.5045
CA 27.9125 -12.6974 46.8493
CA 20.8774 -20.9118 35.8572
CA 16.383 -24.8356 54.4139
CA 29.3719 -40.3255 76.1653
CA 36.0336 -20.8069 85.0921
CA 56.273 -30.0057 52.8683
CA 38.5364 -22.1557 51.897
CA 20.8672 0.2569 55.3645
CA 19.0779 -25.6236 35.2509
CA 23.4071 -16.256 71.1026
CA 45.7593 -15.3091 57.9298
CA 26.5331 -8.4518 82.3346
CA 23.5037 -12.9914 39.6737
CA 11.7036 -9.88262 62.6464
CA 12.6887 -19.0271 67.3714
CA 45.6917 -29.8703 62.389
CA 19.314 -9.38115 48.5538
CA 4.04465 -4.11718 9.65601
CA 39.933 -16.4121 37.2383
CA 27.147 -13.0502 57.9719
CA 38.9042 -32.0518 41.8876
CA 6.89336 -12.0726 17.0278
CA 17.2964 -27.3755 33.7025
CA 42.5833 -3.18821 53.5186
CA 4.2235 -10.0611 49.5764
CA 31.5515 -4.73729 54.4262
CA 49.353 -36.5881 54.1742
CA 5.73604 -21.4528 47.8766
CA 41.9233 -25.3801 48.562
CA 24.3193 -27.9911 56.289
CA 35.9584 -19.9851 33.336
CA 44.7128 -22.1085 44.9612
CA 17.1844 -21.2595 32.4385
CA 33.1234 -21.9853 89.7455
CA 34.5509 -18.0852 61.5097
CA 6.50951 -22.5158 41.4992
CA 39.0415 -31.0939 86.9333
CA 20.9039 -4.87486 63.444
CA 48.0724 -22.3715 39.7421
CA 21.608 -25.669 87.5106
CA 45.6469 -24.1065 49.629
CA 5.22542 -19.9791 44.572
CA 11.698 -14.5856 68.7527
CA 7.06485 -15.573 60.4713
CA 13.9752 -15.4178 51.7583
CA 40.8166 -29.3382 37.1529
CA 33.9297 -25.1132 42.0028
CA 10.5771 -18.2863 17.5312
CA -0.0712735 -23.772 49.1028
CA 15.3918 -8.5653 42.1477
CA 17.6583 -10.7898 62.4114
CA 41.6121 -34.3806 46.2799
CA 9.99379 -30.1163 57.7374
CA 26.5727 -19.1478 60.627
CA 21.0335 -24.6598 85.6384
CA 49.8772 -19.9615 59.05
CA 15.4834 -22.6732 68.4988
CA 20.421 -24.8648 64.5444
CA 20.3752 -13.1173 48.1009
CA 10.0883 -13.3415 20.6229
CA 27.8629 -31.1448 81.9895
CA 43.8492 -7.29413 51.9488
CA 29.3734 9.71319 46.2043
CA 24.3671 -27.7863 71.4928
CA 17.2541 -17.449 46.1195
CA 47.3822 -18.4695 63.8558
CA 36.7433 -6.01348 71.7802
CA 41.3226 -24.3248 54.3487
CA 12.2811 -7.83528 5.8178
CA 16.2801 -20.6968 69.9459
CA 36.2255 -0.733007 37.1497
CA 47.2167 -32.7707 55.416
CA 40.4709 -23.743 50.6877
CA 35.0913 -21.1746 59.7469
CA 30.389 -36.1167 66.4953
CA 32.1178 -14.7278 56.3788
CA 30.5261 -20.1941 51.7379
CA 12.8812 -18.5221 20.0746
CA 23.547 -12.122 52.7632
CA 49.7581 -0.387196 53.7945
CA 30.3694 -11.2876 85.2493
CA 29.296 -14.517 66.0762
CA 20.776 -20.3777 28.726
CA 27.8317 -38.2331 56.5072
CA 21.5949 -13.8519 35.5374
CA 22.0795 -16.9562 44.9028
CA 12.0233 -29.086 63.9913
CA 29.6655 -10.9087 77.2453
CA 21.1791 -16.9119 33.6796
CA 37.0348 -1.97356 72.1232
CA 29.0721 -38.2784 57.9312
CA 3.27818 -21.4663 48.2458
CA 50.786 -12.2272 45.7689
CA 29.9279 -13.0078 75.3274
CA 36.3245 -32.5921 46.8927
CA 15.5705 -33.524 51.2987
CA 37.9445 -26.9908 41.9309
CA 10.899 -14.8931 19.9709
CA 40.4362 -32.3035 59.2995
CA 34.6321 -21.1204 54.1895
CA 33.1313 -35.7532 75.2922
CA 47.4195 -1.34998 51.0499
CA 24.6432 -26.2445 78.11
CA 15.798 -34.1427 46.6685
CA 35.7568 -14.2824 58.9359
CA 20.8539 -28.662 67.9214
CA 25.385 -23.4056 54.873
CA 24.809 -24.5218 82.0731
CA 44.2875 -29.3312 52.4818
CA 38.648 -19.5345 62.1039
CA 29.3069 -29.1183 87.5739
CA 23.3689 -29.8479 77.7909
CA 35.7232 -25.3421 45.9863
CA 13.0056 -31.5135 34.9519
CA 23.2777 -24.6558 62.3329
CA 38.0218 -34.134 63.4288
CA 45.8011 -26.8297 39.9343
CA 38.0654 -29.3779 78.2259
CA 44.6276 -8.34934 61.4341
CA 36.2102 -32.8814 50.5009
CA 29.842 -24.7926 50.2026
CA 20.4346 -29.1564 92.9396
CA 51.8438 -2.79541 52.286
CA 18.7378 -23.0993 35.9642
CA 16.2451 -15.7305 24.3937
CA 34.1132 6.92026 38.7986
CA 25.4351 -9.27865 63.1952
CA 12.4782 -29.8504 44.2125
CA 29.0168 -32.4106 54.9219
CA 36.0714 -38.9855 47.6458
CA 23.9395 -8.08142 66.5776
CA 25.0643 -10.2167 34.7423
CA 28.6869 -35.1791 82.6487
CA 5.61317 -16.1997 44.0895
CA 20.4018 -21.7269 55.5438
CA 12.3519 -15.2543 22.6115
CA 31.2781 -26.9076 83.5269
CA 19.6853 -6.4313 40.0241
CA 16.5912 -11.3707 65.9567
CA 24.8507 -25.198 84.8559
CA 24.8561 -2.00622 58.589
CA 28.3683 -19.7349 40.7173
CA 35.9361 -22.7978 69.3658
CA 40.797 -25.0212 33.3804
CA 52.1953 -7.9187 45.8502
CA 32.1569 -1.61535 54.4433
CA 19.8595 -27.687 69.7405
CA 24.5591 -9.47461 68.7544
CA 43.1821 -15.6288 75.9474
CA 32.4449 -33.9446 75.2003
CA 13.0632 -32.9223 44.2436
CA 32.5219 -23.7161 35.5894
CA 40.2624 -30.2873 61.0837
CA 33.439 -21.3043 82.695
CA 10.1219 -32.0052 59.332
CA 43.2771 -10.5055 48.3251
CA 49.9672 -35.592 57.7345
CA 36.4918 -14.0232 64.1664
CA 12.7007 -6.88099 63.0142
CA 36.1012 -24.415 41.9723
CA 35.8574 -19.7225 65.212
CA 32.8792 -14.5302 43.7605
CA 21.7721 -11.9994 26.7162
CA 36.4402 -23.2535 43.3228
CA 2.07529 -25.6244 42.6974
CA 3.60619 -15.8407 64.6693
CA 46.7215 -11.8613 51.8096
CA 26.7801 -12.4694 66.4902
CA 17.4697 -8.7749 34.8388
CA 36.4144 -2.18704 41.4159
CA 9.95636 -8.00618 1.01564
CA 25.4387 -21.7034 57.0723
CA 16.6139 -12.6572 47.1489
CA 31.5703 -44.7333 60.9394
CA 38.7518 -11.8124 57.3064
CA 31.9098 -16.5968 58.355
CA 24.5141 6.08446 34.7915
CA 45.6538 -30.5354 45.8871
CA 17.4893 -29.5189 36.6522
CA 28.0143 -28.1554 33.4923
CA 24.3191 -18.5743 65.388
CA 38.4104 -6.07221 41.1434
CA 32.3983 -3.95344 49.6239
CA 50.2148 -21.7085 68.7136
CA 23.1457 -1.32383 36.1128
CA 30.7841 -10.579 74.3756
CA 26.8961 -28.4149 50.2191
CA 41.2592 -6.45077 46.2046
CA 34.4761 -13.2686 51.4144
CA 27.6813 -13.3852 44.1239
CA 55.9282 -19.4064 63.0079
CA 27.303 4.72058 46.011
CA 39.0301 -30.0558 46.2636
CA 10.304 -25.4387 57.3532
CA 11.4516 -24.6228 55.8404
CA 23.6492 5.26168 51.7694
CA 28.7455 -41.2328 58.4801
CA 20.0198 -26.5004 71.2705
CA 37.3673 -35.6198 45.0043
CA 29.4982 -42.8824 58.2283
CA 29.3786 -24.364 51.9988
CA 39.8142 -0.704201 56.807
CA 7.33062 -8.70857 19.3972
CA 26.6713 -39.036 85.707
CA 12.1606 -33.0308 33.4972
CA 12.5476 -21.4629 67.8238
CA 32.9648 -32.8283 37.8767
CA 8.84677 -17.5597 65.7618
CA 4.11508 -15.0817 44.3988
CA 27.7371 -18.973 31.0194
CA 36.077 -30.7562 81.0851
CA 40.1694 -19.7767 84.8987
CA 36.2673 -12.6083 50.358
CA 30.8586 -37.5709 81.8409
CA 16.918 -14.279 50.5418
CA 9.16697 -9.25365 18.7609
CA 28.0357 -25.4772 89.4384
CA 21.1202 -1.92076 60.0951
CA 17.0696 -16.2888 48.1618
CA 31.1216 -37.0308 74.8519
CA 27.1655 7.74561 35.5175
CA 37.2037 -27.9406 60.8963
CA 9.2865 -27.2278 39.3765
CA 47.0335 -15.7625 50.5566
CA 36.0576 -11.653 47.2111
CA 41.0992 -26.0774 31.5163
CA 13.4772 -34.5 50.0937
CA 27.2842 -0.979597 44.1961
CA 18.3889 -25.6767 70.3671
CA 31.1768 -35.3827 81.2713
CA 12.8542 -11.0083 61.5214
CA 46.6569 3.98095 51.4633
CA 33.3608 -26.4273 39.0592
CA 37.718 -22.594 65.4226
CA 15.7632 -17.5407 21.0663
CA 33.4654 -16.6693 45.6152
CA 43.5113 -11.6756 46.7218
CA 18.2494 -12.9419 22.7544
CA 26.9325 -15.5894 41.0328
CA 33.3551 -18.8634 84.1565
CA 43.8552 -13.524 54.996
CA 33.6319 -26.4668 87.7223
CA 11.2155 -17.6738 66.5865
CA 37.4345 -23.8159 54.3189
CA 15.7191 -17.3775 56.1156
CA 30.8037 5.55277 35.3365
CA 33.3337 -7.08279 53.7368
CA 19.8726 -14.0205 36.1958
CA 26.7705 -18.7519 68.4115
CA 19.5618 -1.00299 51.3044
CA 37.5913 -35.9025 49.5939
CA 15.6996 -3.80347 52.975
CA 42.8846 -20.5813 47.4398
CA 49.6764 -14.7217 64.4767
CA 22.9423 -11.1068 68.5732
CA 24.016 2.33853 48.1455
CA 14.191 -19.6381 49.1458
CA 31.7743 -25.6362 41.5393
CA 30.8666 -41.6729 57.3926
CA 30.0101 -25.9648 46.0391
CA 9.54295 -24.3462 48.9641
CA 28.3223 -30.4659 75.1628
CA 23.5081 -11.2061 55.6364
CA 52.1881 -18.4181 61.3663
CA 13.7041 -27.4152 59.7715
CA 25.5603 -18.4709 43.6554
CA 10.8696 -9.20172 5.55798
CA 40.336 -18.6262 62.3638
CA 34.221 -12.5208 53.0383
CA 29.8494 -32.2777 63.3176
CA 37.765 -30.1512 58.5721
CA 30.7014 -29.7684 53.1914
CA 20.0794 -27.6499 79.8152
CA 4.82379 -9.32281 12.591
CA 13.4491 -33.2278 46.0052
CA 23.9324 -37.6101 55.8223
CA 29.8509 0.0741373 43.4978
CA 8.85674 -23.2711 45.5623
CA 28.2957 1.56586 61.4741
CA 40.6963 -3.9024 61.26
CA 29.8845 -24.699 64.4262
CA 37.538 -34.3312 56.2348
CA 24.8038 -30.1727 88.2619
CA 26.086 -2.72613 61.9265
CA 48.336 -15.7927 69.1055
CA 5.90608 -7.82348 18.5798
CA 25.9097 -11.505 28.1381
CA 18.9789 -28.3187 90.0557
CA 37.4153 -34.6417 58.665
CA 23.552 -15.2808 34.8787
CA 30.016 -27.788 38.3867
CA 16.5661 -33.8974 48.5945
CA 3.05722 -11.2978 47.4286
CA 14.4597 -7.1042 44.1236
CA 47.7126 -22.5581 64.6426
CA 35.8598 -26.1838 32.9825
CA 49.0945 -16.3282 51.5359
CA 28.3306 -22.8665 53.3372
CA 27.8059 -40.1185 82.5458
CA 27.4504 4.92842 53.4264
CA 7.96459 -31.3356 41.4902
CA 30.2476 -35.498 76.8438
CA 41.0038 -18.9841 49.1985
CA 50.0707 -23.8038 59.0643
CA 46.4739 -22.4866 67.5826
CA 24.3001 -22.4061 87.1591
CA 26.0414 -27.525 87.3499
CA 36.726 -2.39311 62.2179
CA 6.56212 -14.6706 16.5673
CA 35.3509 -19.9824 87.7254
CA 6.43902 -9.46353 51.8743
CA 47.0666 -9.24757 49.3616
CA 15.7356 -24.0708 63.858
CA 42.9435 -6.23395 62.0017
CA 41.9687 -30.7363 38.1662
CA 33.8917 -31.917 75.3299
CA 8.11765 -11.5716 68.9497
CA 19.9855 -26.0837 68.8475
CA 39.5175 -9.38861 62.0171
CA 33.8363 -11.5609 59.513
CA 27.6622 -30.5636 85.7733
CA 13.0504 -15.9587 43.7122
CA 46.8154 -32.341 48.8766
CA 43.95 -27.1898 64.0435
CA 21.0424 -23.4094 34.4889
CA 24.8849 3.85899 37.8347
CA 27.0398 -17.1942 43.3062
CA 49.338 -11.398 51.1737
CA 46.3924 -11.5487 68.182
CA 31.7315 -15.7415 51.6561
CA 27.1995 -11.9472 77.155
CA 21.1959 -14.4285 57.0008
CA 27.0214 -25.9174 65.1486
CA 34.4037 -12.6825 65.0603
CA 51.8925 -5.06326 52.1434
CA 18.273 -26.8014 39.8514
CA 32.8261 1.07033 51.5122
CA 14.3916 -18.6518 63.7294
CA 22.7122 -13.6696 53.3911
CA 37.1516 -40.0321 64.2112
CA 42.555 -10.3749 74.7168
CA 26.9362 -12.4392 24.7045
CA 29.5994 -32.9037 74.8523
CA 22.3632 0.306742 60.5254
CA 12.6356 -16.6646 53.3531
CA 15.9153 -13.167 65.7053
CA 34.2607 -2.55802 53.8151
CA 10.5338 -12.6821 70.9152
CA 11.4805 -30.4382 56.3583
CA 31.0096 -22.0759 55.6621
CA 15.9075 -16.0299 19.6362
CA 43.8999 -26.149 38.7165
CA 12.4831 -4.89231 5.32322
CA 47.9782 -13.3171 47.679
CA 27.9422 -23.533 60.8
CA 37.5395 -25.2537 33.4877
CA 6.32237 -23.7002 47.8464
CA 31.1987 -32.0653 58.1313
CA 6.12102 -12.4775 68.3414
CA 4.70821 -4.15965 50.2135
CA 35.3016 -3.5334 48.7155
CA 22.5079 -5.24513 62.1525
CA 8.89228 -24.3516 64.121
CA 45.7909 -14.7428 60.2348
CA 26.2431 -25.1074 43.6876
CA 22.1221 -22.988 62.209
CA 20.2679 -10.3021 52.9433
CA 35.3764 -26.8273 56.415
CA 35.9742 -2.81612 52.8939
CA 31.6541 -6.04167 53.0286
CA 33.347 -16.0217 38.4592
CA 26.7145 -16.5098 75.2692
CA 27.4719 -32.0165 75.7931
CA 19.1603 -27.8236 34.6097
CA 33.3061 -22.8272 30.0062
CA 10.3059 -28.8953 31.51
CA 35.5078 -16.9578 39.9192
CA 32.6859 -32.0197 82.7223
CA 26.2943 -11.7368 33.1619
CA 37.0151 -4.0785 45.0939
CA 37.2071 -18.3045 66.7519
CA 17.1014 -19.8553 16.0608
CA 15.1177 -10.2588 60.4928
CA 43.7777 -25.7073 52.9108
CA 45.9648 -3.21976 64.5712
CA 20.1259 -1.13012 53.1358
CA 42.3112 -6.10151 50.1179
CA 38.4348 -17.2385 71.4092
CA 24.9442 -32.3152 50.9497
CA 39.3817 -29.1186 28.6206
CA 44.8485 -26.8425 67.8777
CA 44.0876 -34.8067 59.2252
CA 54.4347 -25.2393 52.6254
CA 44.773 -3.13474 46.3113
CA 26.856 -20.9469 64.1334
CA 20.9395 -23.1985 59.538
CA 46.1935 -20.9447 69.4352
CA 33.4278 2.91766 38.5775
CA 7.24641 -6.76297 0.61851
CA 35.2818 -14.7968 40.0529
CA 11.4663 -19.9 22.392
CA 47.1961 -34.4347 54.2893
CA 37.8366 -36.5862 47.2777
CA 44.18 -30.1349 48.5678
CA 35.2214 -9.75911 72.8523
CA 41.1082 -21.71 47.5071
CA 19.1229 -12.7788 32.5945
CA 28.1418 3.13392 53.7176
CA 28.5666 -18.5675 53.9734
CA 24.5105 -4.20595 39.8613
CA 44.7064 -6.12751 53.1968
CA 28.1052 -38.482 77.9422
CA 53.8712 -32.8416 54.3723
CA 42.2818 -28.329 37.4263
CA 12.6028 -14.4126 50.2264
CA 6.97699 -8.00207 11.9261
CA 54.5373 -18.5439 52.5793
CA 22.4997 2.51288 56.8788
CA 32.1795 -38.351 49.716
CA 38.1266 -29.3784 89.0803
CA 12.9167 -26.0902 57.9296
