489

CA 15.9521 -22.2688 65.284
CA 28.2067 5.22637 43.3834
CA 23.7363 -24.5834 37.7637
CA 28.7768 -0.303483 40.7037
CA 20.6375 -21.3755 65.0125
CA 49.9184 -7.37564 55.4069
CA 32.7845 0.135779 42.1347
CA 31.5007 -21.8254 63.0813
CA 27.9795 -2.20358 34.818
CA 31.1973 -3.42019 45.8521
CA 35.7004 -2.12854 66.9344
CA 47.1635 -37.7633 60.2735
CA 31.9656 -2.05214 46.9641
CA 28.4664 -36.1588 66.703
CA 27.12 -15.1142 33.9105
CA 18.7274 -8.18605 39.1249
CA 49.9609 -21.8445 67.3673
CA 25.8354 -0.891594 56.3901
CA 29.976 -25.9825 62.5888
CA 10.4922 -28.3221 55.6879
CA 7.56624 -3.79373 63.6082
CA 42.453 -22.2903 66.7646
CA 19.4811 -6.23304 58.4267
CA 28.6523 -29.2559 77.1533
CA 48.9955 -28.4956 62.487
CA 31.1551 -45.5037 54.5715
CA 30.2782 -19.1081 61.8231
CA 40.8749 -13.6725 54.6295
CA 38.2649 -29.5355 62.0115
CA 3.88602 -16.3252 62.8095
CA 37.3587 -13.7278 36.6825
CA 25.8474 -31.4024 74.4533
CA 7.02553 -14.0597 58.5866
CA 35.5538 -13.4145 42.5478
CA 10.2577 -11.6072 69.2943
CA 37.2668 -11.5951 74.2213
CA 23.8478 -27.0337 73.0249
CA 6.99426 -15.3483 52.8715
CA 33.5949 -27.5758 37.6885
CA 12.8724 -17.2575 37.6705
CA 36.8558 -15.3261 63.4288
CA 15.0868 -10.8093 26.0582
CA 31.957 -26.7261 71.0526
CA 40.4267 -18.0094 79.0325
CA 46.8125 -28.8055 46.1982
CA 37.7961 -31.5833 54.075
CA 32.3021 -29.9622 84.5067
CA 25.6104 -23.8128 51.6062
CA 51.073 -19.9086 62.7012
CA 45.1364 -35.8104 53.7003
CA 24.9889 -13.0469 63.6157
CA 42.766 -36.8589 53.3821
CA 32.7123 -39.302 56.1719
CA 37.7808 7.32511 33.0565
CA 48.7732 -28.0761 50.5773
CA 22.9741 -9.28001 59.3484
CA 22.2393 -35.4852 59.5356
CA 56.3659 -33.6716 64.2222
CA 35.4996 -36.1374 37.365
CA 23.6395 -32.7227 90.0074
CA 38.5972 -7.52276 64.0403
CA 49.9624 -13.2775 62.1212
CA 33.7292 -3.12349 58.3573
CA 36.5376 -16.2365 47.422
CA 55.5766 -17.8707 57.9434
CA 15.1763 -8.18642 63.4063
CA 4.94035 -7.8362 2.98644
CA 16.1699 -33.7233 34.5915
CA 28.1853 -24.6097 62.209
CA 34.3506 -29.6973 89.3104
CA 15.5666 -33.362 41.0707
CA 29.0803 8.89958 33.5925
CA 36.0336 -20.8069 85.0921
CA 41.7356 -10.925 56.4319
CA 9.88311 -16.7591 23.3984
CA 40.1287 -21.2921 74.9773
CA 29.1423 -43.9491 59.8502
CA 22.1343 -7.44 50.2079
CA 22.443 -27.3921 82.5348
CA 42.336 -40.7495 52.6211
CA 44.9288 -9.83538 54.355
CA 8.47922 -21.6993 61.7604
CA 25.7559 -26.361 38.3495
CA 40.2094 -9.5758 54.0126
CA 43.3894 -12.1892 52.7634
CA 5.10944 -10.5879 9.13383
CA 29.6639 -15.3751 50.0843
CA 28.3078 -11.3337 69.8463
CA 30.0561 4.81718 40.2841
CA 6.89336 -12.0726 17.0278
CA 44.3458 -26.6315 53.6624
CA 22.1601 -17.3516 61.1671
CA 46.4099 -20.5896 33.0288
CA 34.5135 -18.8985 81.8148
CA 18.6885 -24.1609 32.1014
CA 20.278 -12.4732 56.1686
CA 22.0973 -12.4827 58.7917
CA 30.1745 -21.7556 38.7843
CA 30.5292 -24.8828 42.2683
CA 6.67544 -12.7916 10.9201
CA 26.3112 6.29263 37.1658
CA 33.3377 -12.2026 44.3221
CA 25.0422 -13.6714 38.0555
CA 45.4097 -21.7339 71.2734
CA 46.3522 -23.387 45.7246
CA 52.3473 -21.324 69.4386
CA 18.103 -34.3657 35.3529
CA 15.3574 -20.6102 52.9817
CA 48.4525 -0.919869 53.0514
CA 40.8054 -19.5082 71.5758
CA 42.0706 -23.2442 87.2815
CA 29.0084 -13.5776 67.413
CA 9.16574 -27.9368 43.4199
CA 39.8397 -26.233 36.5365
CA 46.4077 -29.8756 40.0696
CA 10.5771 -18.2863 17.5312
CA 37.7315 -26.7194 34.9422
CA 13.9951 -11.1526 57.934
CA 50.8188 -17.0809 57.0093
CA 39.6045 -11.3873 53.8389
CA 31.0038 -31.7606 76.4104
CA 28.3614 -9.45698 54.3835
CA 45.2439 -25.2983 40.3845
CA 34.4761 -5.87013 72.5075
CA 53.1711 -13.9516 66.1799
CA 40.7103 -29.5392 47.5272
CA 17.257 -14.6906 42.7718
CA 9.1852 -17.6986 16.0835
CA 5.86628 -11.8044 63.5351
CA 46.7877 -34.2587 54.48
CA 43.9127 -11.6564 70.5595
CA 42.3801 -9.88539 44.1563
CA 30.8249 -32.067 69.268
CA 30.181 -4.74042 70.5973
CA 25.4451 -23.2576 83.2313
CA 36.4363 -25.7151 86.0186
CA 49.4686 -18.8008 64.6985
CA 41.1832 -9.13274 75.7952
CA 23.9556 -1.21266 54.4002
CA 29.8765 -27.7013 67.1442
CA 7.10397 -11.2605 39.8119
CA 29.5162 -18.6051 59.9732
CA 21.2686 -27.1649 36.3722
CA 33.3797 -34.5115 34.9816
CA 29.4088 -46.3031 59.0161
CA 16.3284 -12.5843 55.2554
CA 29.4742 -43.4477 55.2457
CA 28.2625 -20.246 81.3191
CA 27.8343 -17.1925 33.3607
CA 37.4154 -24.2458 41.6763
CA 47.3348 -39.7897 59.6197
CA 27.8317 -38.2331 56.5072
CA 42.9776 -5.66697 45.7751
CA 2.40799 -2.38512 3.25909
CA 52.493 -23.3516 52.5379
CA 1.2896 -7.99623 16.8393
CA 34.5753 -10.6435 38.8843
CA 49.846 -29.5653 64.1857
CA 40.1779 -21.0674 88.9343
CA 43.9088 -38.1502 62.5797
CA 50.786 -12.2272 45.7689
CA 30.3555 -21.6719 52.5261
CA 11.7268 -11.6225 55.4643
CA 34.1484 -14.3539 64.443
CA 41.0707 -31.5763 62.2319
CA 45.8263 -32.0904 64.065
CA 16.019 -32.5009 31.4404
CA 42.137 -1.50136 48.2421
CA 14.2397 -39.8669 41.2014
CA 40.3903 -39.0784 66.0798
CA 37.8745 -17.547 44.7983
CA 50.8559 -19.3868 51.8949
CA 32.2421 -32.5118 80.9231
CA 13.2674 -35.876 38.2656
CA 30.672 -13.7454 49.0709
CA 36.0202 -2.40233 59.6396
CA 44.2875 -29.3312 52.4818
CA 28.5838 -21.1803 83.8207
CA 9.11125 -14.8944 20.8808
CA 15.0715 -17.5685 64.9688
CA 25.9075 -34.7973 67.104
CA 2.53388 -35.3421 41.7872
CA 32.9199 6.76789 33.4079
CA 49.5811 -19.8314 66.7699
CA 34.7439 -30.651 48.9826
CA 7.25521 -7.39851 67.9701
CA 37.6543 -12.8504 33.9111
CA 32.3866 -21.2739 40.8835
CA 14.6318 -32.5649 42.8336
CA 22.4397 -26.6142 53.3773
CA 25.9468 -36.5451 86.5422
CA 43.0326 -3.09142 47.2521
CA 16.2451 -15.7305 24.3937
CA 39.5254 -38.0246 70.1713
CA 14.9752 -14.5709 23.2858
CA 25.1588 -30.9306 56.8353
CA 20.0058 -25.0351 69.7825
CA 45.7582 -37.5255 59.1085
CA 54.2481 -19.7278 59.4361
CA 10.3686 -33.0007 42.6329
CA 28.6869 -35.1791 82.6487
CA 38.2848 -25.3121 92.1133
CA 35.0756 -40.7608 55.0874
CA 38.4542 -22.8935 36.0799
CA 9.34763 -18.5402 53.2654
CA 28.7665 -7.33043 30.4508
CA 34.2346 -3.48357 51.5014
CA 23.6024 -22.7049 55.1094
CA 9.37844 -17.2306 13.307
CA 6.46604 -23.3187 51.4747
CA 21.0764 -9.39595 32.1526
CA 11.1091 -15.369 56.1654
CA 52.1205 -26.1534 47.114
CA 32.1569 -1.61535 54.4433
CA 19.8595 -27.687 69.7405
CA 14.0314 -30.9192 44.3959
CA 34.2656 -7.87804 62.7144
CA 9.84354 -7.92382 63.0662
CA 30.911 -7.42385 59.3714
CA 34.4 -15.4345 47.6288
CA 40.2624 -30.2873 61.0837
CA 4.95795 -22.8037 64.5673
CA 45.555 -28.3907 54.0828
CA 23.9633 7.98305 43.0586
CA 49.9672 -35.592 57.7345
CA 31.0181 -45.0935 64.0075
CA 29.4574 -17.8356 35.6381
CA 46.9255 -26.8914 48.5525
CA 20.8468 -23.4671 38.5283
CA 32.2558 -20.2316 33.0583
CA 36.0698 -12.3346 35.466
CA 16.9969 -14.543 54.2548
CA 46.5569 -1.56219 53.4079
CA 43.8351 -21.3328 53.7483
CA 12.5874 -13.9664 18.8628
CA 26.7801 -12.4694 66.4902
CA 22.4353 -26.296 33.5381
CA 35.8077 -1.66571 44.6029
CA 9.95636 -8.00618 1.01564
CA 22.473 -3.58515 60.4083
CA 39.4933 -21.4156 33.6756
CA 37.2176 -16.787 84.3387
CA 24.1592 -34.6764 94.2495
CA 27.9005 -33.9308 53.2033
CA 30.2398 -32.1186 32.1837
CA 35.628 -18.1254 42.366
CA 35.7565 -6.57983 66.6144
CA 48.2238 -4.61054 53.7422
CA 41.158 -15.8918 76.2821
CA 52.2137 -21.9431 63.6128
CA 15.5398 -24.2588 33.9489
CA 40.7861 -35.9672 60.6822
CA 46.2218 -12.0013 48.1796
CA 33.413 -3.19711 65.5148
CA 32.797 -27.3387 67.5107
CA 14.5888 -19.2161 49.3256
CA 13.2371 -18.1714 42.6205
CA 7.06016 -8.19 44.1815
CA 33.5994 -26.6471 55.6284
CA 54.763 -11.9282 52.1689
CA 44.4423 -15.8059 57.4735
CA 7.31877 -6.68171 41.2065
CA 9.09448 -28.3698 61.0542
CA 29.5515 -31.2634 34.0074
CA 28.782 -28.9429 35.5549
CA 9.74168 -29.6644 43.364
CA 1.27654 -31.2446 38.4658
CA 50.9686 -21.4339 47.8826
CA 25.3617 -1.24443 36.9565
CA 44.9496 -2.55201 50.2772
CA 16.5735 -35.4157 37.5913
CA 38.5558 -12.5305 50.6835
CA 25.8719 -6.57581 29.9361
CA 36.0406 -24.6333 92.5915
CA 38.6809 -13.8945 75.6716
CA 36.9571 -7.73479 40.2953
CA 31.8418 -8.93 57.4453
CA 30.2452 -32.5806 86.1105
CA 31.6528 -34.326 50.5103
CA 22.5602 -24.6308 61.6222
CA 23.8384 -0.253432 52.3681
CA 20.1243 -25.765 64.8431
CA 28.4901 -16.0472 53.9102
CA 28.5735 -27.2992 62.8286
CA 6.58582 -5.73736 7.81598
CA 35.426 -1.63355 69.377
CA 32.0798 -25.1787 67.84
CA 8.04919 -27.1003 59.9239
CA 31.835 -39.2053 51.2485
CA 40.2515 -21.3515 85.2559
CA 16.3635 -12.2979 28.3964
CA 39.3086 -5.25256 58.3009
CA 32.9518 3.39434 43.0397
CA 27.3767 2.23336 52.0523
CA 42.34 -36.1169 58.6404
CA 27.5174 -14.0766 57.6896
CA 27.5807 -14.3973 55.704
CA 27.1369 -47.9547 55.6298
CA 38.0948 -27.4765 87.8928
CA 9.10509 -19.2186 62.2221
CA 35.0586 -10.8798 36.0008
CA 14.679 -25.7903 61.1041
CA 34.5821 -31.4601 51.251
CA 36.1448 -43.2538 57.3707
CA 16.7094 -22.2903 47.1385
CA 31.9235 -6.62045 50.4842
CA 18.1087 -27.8774 56.1142
CA 37.1796 -22.5272 58.5018
CA 37.0996 -21.2545 46.7455
CA 36.833 -39.5679 64.0889
CA 23.7628 -22.4725 35.2054
CA 26.6287 -32.1211 52.6296
CA 41.3743 -12.315 60.2317
CA 56.3563 -22.8273 57.1472
CA 29.3864 -8.17894 76.2513
CA 19.8726 -14.0205 36.1958
CA 30.962 -5.82814 60.807
CA 44.1499 -39.6527 57.6401
CA 8.27965 -26.1289 45.3073
CA 36.6924 -33.5683 56.2395
CA 37.4149 -21.1829 35.1468
CA 33.2042 -12.8721 39.4097
CA 37.1781 -32.8997 46.829
CA 29.391 -30.1432 44.4947
CA 37.3902 -19.3734 47.1442
CA 25.881 -27.5806 79.6067
CA 19.604 -24.1154 37.298
CA 39.9501 -20.0438 81.5499
CA 34.7341 -21.3893 55.8234
CA 12.0828 -13.9114 57.2644
CA 10.6129 -22.3919 22.4723
CA 54.7083 -29.4132 64.3908
CA 17.5491 -21.4116 63.3281
CA 24.8625 -6.46771 31.4236
CA 10.8696 -9.20172 5.55798
CA 11.6698 -33.1398 40.1568
CA 52.3359 -21.389 52.6965
CA 32.2094 -12.7659 70.7295
CA 27.5162 -18.9318 34.6608
CA 29.5446 -6.68718 47.6093
CA 42.9257 -33.1671 64.5526
CA 4.82379 -9.32281 12.591
CA 32.677 3.06949 41.0116
CA 23.9324 -37.6101 55.8223
CA 20.1011 -25.5821 50.5259
CA 36.7904 -26.945 44.8313
CA 34.3866 -28.8312 68.4011
CA 32.0113 -4.54447 77.7608
CA 27.1064 -13.4209 31.2817
CA 9.61617 -23.3218 41.1193
CA 8.92775 -11.4183 37.6421
CA 44.4799 -22.6047 36.2406
CA 22.9985 -28.5035 55.1426
CA 5.90608 -7.82348 18.5798
CA 19.9509 -26.4792 31.6642
CA 32.1136 -21.0249 48.6428
CA 3.86037 -26.4816 40.3253
CA 44.7549 -22.405 38.273
CA 50.599 -11.3824 53.1836
CA 16.1678 -8.22052 40.7959
CA 16.9361 -14.6733 40.801
CA 33.0899 -40.9175 50.4199
CA 47.7126 -22.5581 64.6426
CA 23.2488 -23.1236 52.9888
CA 20.3113 -27.5001 28.4667
CA 10.3273 -14.1881 36.3076
CA 33.8243 -10.8938 51.4538
CA 37.0765 -24.6848 36.0666
CA 15.49 -20.4699 28.8552
CA 20.1347 -1.61449 58.5022
CA 38.1995 -19.5779 56.3968
CA 27.6162 0.327684 39.3318
CA 20.3664 -4.47737 62.1948
CA 52.1215 -21.9084 56.2372
CA 21.3032 -4.83824 54.1711
CA 35.0362 -11.4235 75.286
CA 6.56212 -14.6706 16.5673
CA 11.0421 -16.2253 50.4003
CA 1.39451 -6.3981 5.64234
CA 27.1722 -27.2633 45.5026
CA 32.7414 -30.9191 73.2357
CA 51.7857 -14.8266 57.4375
CA 20.791 -25.3558 47.5942
CA 45.6724 -25.6072 48.0136
CA 35.4484 -4.33229 53.4035
CA 35.3567 -17.5475 35.5607
CA 28.5697 -29.8613 53.733
CA 37.8758 -33.8944 59.944
CA 20.1767 -8.29946 60.376
CA 12.4689 -36.7315 42.8419
CA 32.1962 -17.9828 84.2221
CA 43.95 -27.1898 64.0435
CA 39.0748 -16.0428 44.7604
CA 24.8849 3.85899 37.8347
CA 34.0975 -3.70989 42.7268
CA 18.394 -12.9898 37.6268
CA 35.6323 -23.2335 45.1602
CA 33.7059 -16.1819 33.2742
CA 38.9043 -14.8986 60.2214
CA 25.9124 -2.69856 52.6874
CA 52.1398 -16.8734 43.2918
CA 45.5112 -4.12459 56.7937
CA 17.3798 -5.71491 63.7247
CA 25.0897 -25.1467 71.3517
CA 7.14748 -12.6683 65.3966
CA 35.4825 -28.2396 42.3213
CA 30.7946 -9.37204 28.6813
CA 4.98837 -5.15035 64.455
CA 48.1474 -6.94956 54.0041
CA 28.8845 -34.8328 59.4528
CA 30.8488 -26.7013 84.454
CA 27.0011 -8.9368 56.7616
CA 39.9283 -11.1114 71.6894
CA 7.17017 -9.57142 7.23183
CA 53.7661 -23.0754 55.719
CA 31.8902 -10.2489 55.383
CA 33.0257 -4.72778 48.6597
CA 33.8219 -22.973 55.0849
CA 15.9075 -16.0299 19.6362
CA 43.1981 -1.39756 50.5724
CA 29.4095 -49.7279 58.1295
CA 10.8507 -21.9227 51.4737
CA 18.5968 -7.58292 30.8245
CA 41.1299 -9.01405 69.7858
CA 41.7847 -21.2267 51.501
CA 38.0127 -6.17409 66.7804
CA 19.8896 -39.1047 55.3945
CA 27.0621 -34.7467 51.725
CA 40.9045 -22.0894 93.3256
CA 28.2547 -27.3088 85.8753
CA 14.7071 -21.5779 12.351
CA 16.6119 -16.4184 41.2369
CA 40.082 -28.3383 56.6991
CA 36.6252 -20.5656 45.1093
CA 11.922 -28.3143 59.5868
CA 8.22599 -16.6345 54.0419
CA 24.0781 -18.5249 38.596
CA 24.6565 -34.4904 51.9561
CA 42.3581 -19.9673 54.1476
CA 36.4473 -14.5959 73.1989
CA 22.2881 -25.5121 68.3329
CA 15.8983 -28.5723 49.3252
CA 31.7955 -8.91325 71.484
CA 20.0887 -15.309 39.1575
CA 23.0801 -29.017 73.2259
CA 32.6208 -12.8226 36.2527
CA 24.9243 -10.6438 30.7225
CA 10.7154 -23.1134 44.5556
CA 16.4001 -13.0061 37.6013
CA 17.1014 -19.8553 16.0608
CA 40.7669 -22.7653 35.7258
CA 6.04412 -16.9451 57.25
CA 26.2911 -43.6851 55.1857
CA 31.9092 -15.6413 42.0046
CA 35.8501 -30.4338 64.7422
CA 4.92793 -21.8824 42.7427
CA 28.0449 -0.744321 55.2787
CA 9.81933 -19.4272 42.448
CA 30.2406 -12.6252 70.5052
CA 44.0876 -34.8067 59.2252
CA 35.743 -34.0482 58.7719
CA 10.0597 -22.7118 58.631
CA 27.4851 -17.6073 66.7725
CA 31.0006 -47.1027 59.4062
CA 30.2513 -34.5018 32.3132
CA 16.9472 -24.1514 43.2641
CA 7.24641 -6.76297 0.61851
CA 25.2667 -30.5527 76.9053
CA 28.5888 -34.1215 65.7103
CA 29.7159 -29.9835 73.1687
CA 54.7048 -16.7244 65.5287
CA 45.8863 -24.3352 50.0105
CA 33.019 -25.4155 52.0586
CA 31.0555 -33.8772 75.8932
CA 50.8812 -32.9949 52.5154
CA 50.0511 -20.5695 46.5455
CA 27.7328 -25.6329 82.5716
CA 18.1299 -6.01509 31.8145
CA 13.2586 -24.3328 45.1047
CA 15.5058 -20.1886 25.1147
CA 15.9298 -12.2106 20.966
CA 35.2445 -22.175 34.8869
CA 12.2644 -17.5643 46.0863
CA 6.97699 -8.00207 11.9261
CA 38.576 -41.0988 62.1032
CA 19.2328 -23.9495 51.2184
CA 28.7319 -27.4913 83.5946
CA 11.3735 -18.1983 22.5022
CA 16.618 -24.3324 51.1307
