489

CA 45.1759 4.48549 38.4492
CA 16.6217 -33.5867 44.0878
CA 47.3133 -23.2173 38.9942
CA 17.3617 -39.4462 42.4388
CA 45.8421 -21.2959 33.7294
CA 35.7018 -22.2283 86.052
CA 40.9623 -23.2794 32.7447
CA 16.8087 -10.2957 33.1862
CA 14.5599 -15.6822 60.628
CA 33.6103 -27.3098 57.7394
CA 18.3048 -24.0067 60.1781
CA 29.007 0.962551 53.8919
CA 35.01 -23.2233 61.5144
CA 20.6572 -26.4936 62.5545
CA 13.4513 -32.3045 39.7865
CA 30.4941 -18.191 45.1813
CA 32.665 4.28371 47.2981
CA 41.565 -18.1105 92.1979
CA 32.4278 -18.5728 55.9873
CA 37.1902 -2.05455 37.5771
CA 7.56624 -3.79373 63.6082
CA 44.8878 -17.1899 58.9325
CA 22.3574 -27.5819 70.6845
CA 17.6414 -34.669 42.0187
CA 28.0478 -31.2618 44.0189
CA 44.5856 -38.4432 59.443
CA 53.611 -35.9385 55.9312
CA 10.2325 -0.508404 66.2754
CA 25.4311 -7.59507 51.2236
CA 34.2507 -0.266652 45.1037
CA 30.7279 -14.7376 73.7316
CA 36.0565 -10.2185 72.1264
CA 9.81782 -17.099 61.7964
CA 31.7104 -38.1494 35.3292
CA 23.263 -28.8409 61.117
CA 21.4944 -27.8164 43.508
CA 22.173 0.642068 48.5981
CA 51.0172 -42.1646 62.0269
CA 47.9412 -18.7434 42.3942
CA 55.1975 -18.2315 50.1031
CA 36.8558 -15.3261 63.4288
CA 50.3617 -13.9955 57.6784
CA 10.1987 -14.7007 59.8841
CA 40.4267 -18.0094 79.0325
CA 17.5858 -20.4364 30.9192
CA 27.5456 -20.3276 55.0759
CA 28.1196 -32.8516 46.8216
CA 36.6351 -0.388966 49.3031
CA 36.5692 0.698023 51.2194
CA 53.9442 -26.4572 63.317
CA 18.5686 -28.5372 56.7572
CA 24.9361 3.71256 51.3286
CA 29.3858 -9.04422 61.3453
CA 6.51757 -31.23 40.5691
CA 24.7442 -22.9143 38.6021
CA 41.0211 -32.8716 44.8761
CA 45.1726 -1.70187 57.4951
CA 29.5788 -19.9404 66.6693
CA 21.109 -25.7088 58.2108
CA 32.9805 -36.0858 61.9659
CA 30.5357 -36.3855 60.0022
CA 26.4856 -29.8251 44.9188
CA 31.8244 -21.0556 86.0759
CA 54.7452 -16.6859 57.4661
CA 8.67345 -19.0918 62.0174
CA 38.8832 -34.871 62.5449
CA 4.94035 -7.8362 2.98644
CA 5.94782 -11.333 4.7861
CA 26.4101 -23.6353 42.039
CA 34.2415 -7.34848 59.4282
CA 30.5891 -8.74287 39.4571
CA 38.9013 -38.5258 62.2353
CA 26.8734 -27.0264 52.8837
CA 15.8139 -35.8992 35.3748
CA 31.7542 5.85127 35.8478
CA 5.53539 -13.2473 56.6848
CA 24.4152 -2.10049 55.9808
CA 20.2387 -9.46105 40.8614
CA 35.8632 -30.7089 82.9096
CA 20.8076 -16.8456 56.7741
CA 12.305 -23.0234 35.522
CA 8.47922 -21.6993 61.7604
CA 11.4235 -17.65 39.2796
CA 34.6938 -26.3428 37.0268
CA 33.0593 -20.1091 57.5319
CA 5.10944 -10.5879 9.13383
CA 24.3739 -22.819 61.4582
CA 39.1695 -24.2408 38.3286
CA 34.5398 -27.8901 82.3054
CA 6.89336 -12.0726 17.0278
CA 20.2349 -19.5082 38.7457
CA 15.6611 -37.7575 33.6243
CA 24.1796 0.545014 56.7522
CA 34.5135 -18.8985 81.8148
CA 27.3804 -17.7867 67.0702
CA 38.2381 -10.0434 64.5967
CA 40.6436 -27.5508 45.9067
CA 30.9097 -8.15873 61.7786
CA 50.7676 -24.7139 66.3421
CA 17.1681 -32.6283 41.7683
CA 29.8255 -23.975 34.3479
CA 26.4784 -23.4266 80.5657
CA 7.54539 -8.58889 61.2904
CA 32.9144 -16.1223 69.7731
CA 12.1838 -26.0896 42.6652
CA 52.3473 -21.324 69.4386
CA 27.8188 -5.17107 52.2801
CA 21.7117 -7.18231 56.1183
CA 56.9016 -19.4594 54.3123
CA 25.3093 -27.5791 53.7013
CA 30.0213 -41.4419 54.77
CA 34.0605 -13.6263 38.619
CA 28.7022 -38.4408 48.5332
CA 50.8672 -39.5889 59.3895
CA 35.2263 -34.8548 76.9039
CA 10.5771 -18.2863 17.5312
CA 43.5938 -22.5157 40.1943
CA 20.7993 -5.42356 49.663
CA 50.8188 -17.0809 57.0093
CA 55.1522 -16.0507 52.4454
CA 18.8588 -26.8619 53.3939
CA 29.1604 -26.0234 84.9714
CA 11.7146 -10.5784 3.63176
CA 21.5085 -34.1806 34.9119
CA 14.4723 -10.8651 6.87227
CA 29.114 -22.8255 75.2862
CA 51.56 -29.8412 58.97
CA 9.1852 -17.6986 16.0835
CA 32.6731 -12.9126 71.9096
CA -0.283202 -25.893 44.5392
CA 41.8581 -23.348 38.3293
CA 24.9364 -3.77906 39.5443
CA 33.2232 -20.3159 42.9992
CA 7.7816 -18.415 56.3814
CA 50.6367 -9.41609 53.8131
CA 28.9682 -16.8036 33.8031
CA 26.1406 -3.7554 36.6125
CA 58.465 -35.2352 62.4315
CA 27.6398 -1.81458 33.0487
CA 43.7263 -3.81957 49.5779
CA 23.6259 -30.8883 43.6775
CA 43.5492 -28.3831 72.367
CA 40.6615 -19.0753 84.6447
CA 7.09575 -18.1982 54.2861
CA 12.8827 -21.8558 59.4698
CA 22.5211 2.32403 49.2856
CA 35.6731 -29.1923 55.6778
CA 30.1468 -24.4207 62.6523
CA 25.0236 -24.0723 75.7243
CA 26.42 -30.306 53.9497
CA 32.8152 -26.0327 36.7385
CA 60.5947 -39.1424 62.5893
CA 28.8743 -13.5449 57.0649
CA 32.7602 -47.1788 50.4948
CA 47.8914 -17.4386 59.2134
CA 53.186 -14.0404 53.8512
CA 51.1987 -5.91191 56.8278
CA 24.5018 -1.57871 39.0739
CA 51.575 -20.0131 64.5586
CA 29.4384 -2.75018 35.3401
CA 35.4858 -14.7837 65.8563
CA 19.2786 -31.7654 37.9811
CA 42.1112 -39.4065 64.6961
CA 36.1012 -18.2164 59.9723
CA 21.9812 -33.7239 42.2694
CA 45.8263 -32.0904 64.065
CA 22.3549 -11.5548 33.1667
CA 26.6513 -21.4301 71.0115
CA 35.5728 -17.8436 43.4129
CA 36.4495 -33.5726 34.5829
CA 9.74144 -20.295 60.5443
CA 4.74728 -27.8975 54.5606
CA 32.9019 -7.84172 37.0219
CA 13.2674 -35.876 38.2656
CA 26.3614 7.08284 34.3585
CA 32.2928 -36.9627 55.4743
CA 17.567 -12.4583 34.4506
CA 40.2633 -42.677 56.4505
CA 43.4269 -20.0462 57.187
CA 22.5666 -33.0894 38.8374
CA 8.10021 -15.3724 60.5373
CA 56.7783 -18.1932 56.0719
CA 41.7801 -20.5596 87.7364
CA 42.4648 -4.13284 36.2155
CA 19.1713 -7.43285 35.6465
CA 29.1153 -24.7656 41.6798
CA 20.7755 -25.6595 43.5752
CA 32.8588 -27.6643 63.9447
CA 24.7678 -38.4806 62.7939
CA 22.4397 -26.6142 53.3773
CA 25.9468 -36.5451 86.5422
CA 43.0326 -3.09142 47.2521
CA 43.4299 -22.1419 48.9492
CA 37.1625 -17.5227 93.6553
CA 14.9752 -14.5709 23.2858
CA 26.679 -33.8968 46.3316
CA 37.6913 -31.1185 74.1892
CA 14.917 -25.2944 47.7553
CA 54.2394 -29.1042 63.8233
CA 20.0712 -11.4378 38.3386
CA 36.1717 -3.8049 53.3477
CA 25.7082 -8.04699 61.8124
CA 33.7382 -35.8515 87.1692
CA 31.1199 -39.7021 50.1005
CA 25.7997 -15.8184 70.3659
CA 28.7665 -7.33043 30.4508
CA 48.2495 -11.3493 52.9744
CA 23.6024 -22.7049 55.1094
CA 43.3335 -9.02849 57.9598
CA 45.7319 -36.2905 52.8405
CA 33.9287 -6.3711 33.2828
CA 37.0231 -17.7685 63.1857
CA 41.5013 -11.4348 54.6521
CA 1.31968 -11.7601 17.8683
CA 34.8912 -24.2206 47.1843
CA 23.7691 -0.153927 36.4265
CA 14.9697 -17.8076 35.8762
CA 22.9131 -29.476 54.2634
CA 46.7108 -3.04782 55.495
CA 33.1132 3.54905 53.7672
CA 20.2692 -4.32729 51.0602
CA 30.2759 -18.9816 77.3333
CA 21.0443 -21.6408 41.1706
CA 29.7939 -25.5427 75.3767
CA 48.9549 -0.650291 55.5138
CA 48.0159 -3.8822 47.7963
CA 27.86 -13.8693 30.5419
CA 27.7518 -11.8439 61.5018
CA 38.74 -23.955 76.2853
CA 32.2558 -20.2316 33.0583
CA 27.8238 -21.4044 63.4559
CA 4.46037 -9.99876 52.5789
CA 54.4718 -28.688 59.8215
CA 47.2889 -29.6596 63.2943
CA 12.5874 -13.9664 18.8628
CA 46.6134 -21.7686 56.9085
CA 35.9994 -31.7443 40.6896
CA 32.7427 4.24202 49.3177
CA 9.95636 -8.00618 1.01564
CA 21.1817 2.39012 45.2264
CA 39.4933 -21.4156 33.6756
CA 34.4601 -26.8555 74.4796
CA 21.1611 -18.2329 54.6406
CA 18.3697 -23.0412 43.7315
CA 35.6449 -27.8395 35.5529
CA 49.6076 -17.8735 44.8078
CA 52.6753 -36.4597 58.7357
CA 15.3677 -5.98829 48.6668
CA 26.9424 -9.08215 48.1781
CA 30.5448 -44.6427 59.1403
CA 47.2317 -21.9793 44.9146
CA 17.8351 -37.3976 45.5498
CA 29.4709 -12.758 64.9378
CA 48.566 -41.0898 60.1682
CA 55.1909 -8.83012 57.2671
CA 38.334 -28.7408 45.4776
CA 44.5891 -24.9805 50.0998
CA 5.88448 -27.4015 51.3776
CA 41.846 -38.1262 54.9477
CA 26.9523 -30.6407 79.199
CA 56.0813 -32.006 62.4061
CA 27.2232 -27.1783 81.5844
CA 54.9426 -21.9585 65.5535
CA 21.707 -14.6649 23.9558
CA 49.7591 -18.0548 68.5872
CA 2.93434 -23.1134 42.4099
CA 8.74097 -11.0646 5.22843
CA 50.9797 -20.1444 56.9181
CA 22.6837 -2.06943 56.6387
CA 44.9496 -2.55201 50.2772
CA 35.4533 -20.9394 45.9587
CA 38.5558 -12.5305 50.6835
CA 46.922 -17.3096 41.7355
CA 13.9031 -21.5238 64.4066
CA 46.7068 -21.261 36.3257
CA 20.821 0.691917 41.612
CA 10.6217 -15.7755 52.343
CA 49.5808 -22.8803 50.9714
CA 39.3979 -21.3678 50.2479
CA 36.8897 -31.393 46.9336
CA 45.4143 -8.82744 52.9811
CA 7.26063 -30.0836 55.4059
CA 43.6935 -16.1757 81.5402
CA 36.9657 -20.481 91.603
CA 26.2252 -32.9959 44.0175
CA 18.9992 -23.6243 46.1894
CA 42.2367 -10.8592 57.2039
CA 8.04919 -27.1003 59.9239
CA 28.2536 -32.7524 83.1324
CA 39.2673 -28.2863 73.6002
CA 12.3833 -19.8073 35.292
CA 14.102 -35.4352 45.2257
CA 43.3123 -12.5502 55.7166
CA 46.4911 -23.1655 66.9591
CA 38.3955 -36.4341 57.794
CA 6.94846 -13.5513 54.4574
CA 44.2373 -20.7109 51.042
CA 53.397 -5.68946 56.1821
CA 39.3161 -14.0013 52.7802
CA 17.1138 -18.1859 44.0839
CA 12.7312 -15.1298 56.7108
CA 30.1799 4.91912 50.7026
CA 34.2751 -29.4607 63.7158
CA 35.0822 -1.3956 39.4396
CA 15.7768 -9.66536 48.3541
CA 17.6716 -3.41902 47.6238
CA 19.1945 -17.676 24.7469
CA 46.4383 -0.207345 56.4914
CA 12.169 -21.3327 27.7209
CA 33.7482 -3.60714 40.9512
CA 40.3489 0.148478 50.7537
CA 26.6287 -32.1211 52.6296
CA 31.1232 -29.446 67.361
CA 56.3563 -22.8273 57.1472
CA 26.5362 -18.7374 37.3328
CA 19.8726 -14.0205 36.1958
CA 12.2137 -18.7582 52.0144
CA 8.18426 -21.3367 46.2199
CA 11.7541 -25.1936 62.5108
CA 5.64985 -10.0581 65.2621
CA 31.2372 -24.3795 82.2356
CA 31.6899 -4.12045 29.9264
CA 16.8344 -22.2066 26.2116
CA 47.0657 -6.22641 46.0478
CA 29.6443 -10.1358 63.1696
CA 40.9753 -39.055 51.4203
CA 32.4188 -35.6582 36.9425
CA 51.6392 -29.4642 64.103
CA 24.3935 -3.41497 36.8965
CA 13.5498 -19.0008 26.1048
CA 28.6649 -9.46144 58.0021
CA 18.9667 -32.3003 33.7367
CA 15.292 -16.8412 24.0222
CA 34.6444 -32.8554 86.5408
CA 10.8696 -9.20172 5.55798
CA 21.1549 -25.5291 70.3109
CA 43.9384 -8.09983 53.906
CA 14.3211 -15.1866 29.3613
CA 27.3683 -17.891 54.195
CA 49.3738 -26.3574 51.9551
CA 47.757 -25.8796 58.7561
CA 4.82379 -9.32281 12.591
CA 15.5473 -27.7289 40.3754
CA 16.1075 -27.2514 61.9691
CA 58.9277 -26.0513 64.0543
CA 56.9072 -31.6614 60.2094
CA 34.3398 -16.209 59.3581
CA 32.6885 -30.2595 85.1873
CA 31.623 -17.0004 63.8614
CA 20.5212 -3.5388 44.0514
CA 24.5812 -16.7514 56.1448
CA 44.4799 -22.6047 36.2406
CA 8.88868 -19.9127 50.1152
CA 5.90608 -7.82348 18.5798
CA 35.2371 -36.7294 58.48
CA 37.5253 -5.48712 62.3549
CA 51.779 -26.8347 51.2595
CA 58.3393 -27.7347 60.6892
CA 17.0393 -28.0955 64.9503
CA 29.8154 -16.6299 67.026
CA 20.9526 -21.5691 47.5436
CA 39.9201 -4.2915 47.6216
CA 8.95835 -8.72602 8.6274
CA 38.2115 -4.422 32.4587
CA 36.3566 -15.6544 44.4701
CA 32.4311 0.526813 44.9531
CA 40.5453 -17.0006 89.0204
CA 32.5937 -16.237 45.8322
CA 43.8942 -21.6613 44.1296
CA 6.93421 -8.84524 59.5735
CA 38.1995 -19.5779 56.3968
CA 10.1822 -25.5378 46.8218
CA 31.841 -15.3686 34.0248
CA 52.1215 -21.9084 56.2372
CA 28.4133 -8.77051 66.0367
CA 25.6455 -5.47556 51.516
CA 6.56212 -14.6706 16.5673
CA 41.272 -37.3243 53.0403
CA 23.6219 -21.128 71.199
CA 33.4942 -18.6668 32.6215
CA 32.7414 -30.9191 73.2357
CA 30.5315 -29.5272 58.2413
CA 20.791 -25.3558 47.5942
CA 37.0553 -32.1561 63.8389
CA 34.9516 -23.5466 76.804
CA 12.1445 -35.1686 42.4382
CA 40.3022 -37.3432 61.9733
CA 29.1976 -30.3645 85.9175
CA 27.9235 -9.77317 44.2731
CA 9.92187 -10.8665 64.1145
CA 35.5462 -5.16357 63.5406
CA 44.4975 -40.1063 54.7507
CA 37.7352 -14.8973 67.783
CA 17.9586 -24.1299 28.8316
CA 35.12 -20.708 81.0268
CA 45.3741 0.410327 50.19
CA 23.1005 -6.13367 40.7568
CA 33.7059 -16.1819 33.2742
CA 33.2908 -21.0906 55.0038
CA 52.6976 -39.1106 59.9204
CA 18.6692 -11.7856 31.6703
CA 32.5738 -35.1198 83.135
CA 38.0378 -36.5972 45.1526
CA 15.6231 -19.3614 27.2845
CA 32.3937 -35.7524 48.6165
CA 45.0182 -22.4403 60.6337
CA 14.8468 -34.0815 34.7371
CA 14.3618 -36.7211 42.6321
CA 48.8305 -21.1571 68.3128
CA 22.9283 -5.8658 38.723
CA 20.4554 -33.8054 44.0856
CA 31.4878 -8.92831 60.1123
CA 48.1809 -20.8879 34.4597
CA 28.0958 -10.2703 52.5505
CA 29.8314 -27.3094 63.4615
CA 30.9952 -16.1525 44.0078
CA 27.8869 -2.82126 31.0293
CA 46.7195 -20.1836 41.258
CA 15.9075 -16.0299 19.6362
CA 34.0611 -24.3925 37.1626
CA 23.4093 -25.7212 28.9182
CA 34.8362 -39.1281 55.4295
CA 29.4287 -20.5546 43.9784
CA 10.432 -23.4112 62.3885
CA 36.0372 -30.3294 76.6587
CA 36.5729 -16.0172 34.3123
CA 12.6613 -27.0533 51.2352
CA 17.1436 -7.32124 56.4579
CA 37.5058 -34.2846 64.4551
CA 38.9944 3.84424 55.4448
CA 25.9937 -15.4049 42.8881
CA 8.1727 -13.2282 66.7585
CA 31.0004 -48.2351 54.8026
CA 30.9459 -20.8331 76.5155
CA 39.5293 -15.365 64.808
CA 42.0067 -17.2279 83.0772
CA 24.0781 -18.5249 38.596
CA 21.4233 -23.9342 29.4387
CA 45.5629 -23.1733 47.7581
CA 11.2172 -33.0773 41.0464
CA 40.5881 -14.871 50.6443
CA 27.2295 -16.9317 28.9491
CA 31.7955 -8.91325 71.484
CA 27.9761 1.83705 36.1171
CA 39.5048 -19.3506 77.2883
CA 33.6885 -33.3544 64.5184
CA 24.9243 -10.6438 30.7225
CA 14.3588 -24.8864 41.8516
CA 30.8312 -2.25144 44.2059
CA 13.5756 -22.306 17.075
CA 25.6259 -23.728 83.7983
CA 46.6264 -36.3754 60.911
CA 28.1282 -10.1199 27.9968
CA 16.3423 -21.838 35.4383
CA 51.3581 -13.7153 53.4123
CA 4.92793 -21.8824 42.7427
CA 38.5896 -19.5914 51.9627
CA 17.3285 -31.6248 32.0879
CA 23.6403 -8.65612 28.8562
CA 32.1624 -0.385848 26.9774
CA 34.2825 -7.94039 65.705
CA 30.2377 -39.3104 57.422
CA 34.1392 8.23575 52.9887
CA 40.6679 -34.3998 48.9155
CA 28.3558 -28.5659 66.6389
CA 39.9856 -21.5176 81.102
CA 7.24641 -6.76297 0.61851
CA 56.0323 -20.3467 59.5964
CA 28.6999 -12.7861 32.6971
CA 25.3987 -36.8883 58.5105
CA 32.7279 -32.0528 36.0608
CA 18.2301 -12.552 27.7583
CA 39.7614 -21.2581 86.6081
CA 26.8661 -12.7894 48.323
CA 27.4535 -28.5283 61.8229
CA 43.7365 0.741081 37.554
CA 39.9001 0.143262 56.2523
CA 13.1668 -9.0008 5.12869
CA 19.4191 -4.55474 42.1525
CA 26.2791 -27.5428 33.6779
CA 40.2528 -12.3519 52.1527
CA 31.8101 -45.623 62.1037
CA 12.2644 -17.5643 46.0863
CA 27.0525 -10.2611 50.7819
CA 15.5138 -17.2804 46.2563
CA 25.8865 -28.5002 82.9353
CA 39.0246 -6.03644 44.6106
CA 32.6326 -7.26173 42.6788
CA 18.4008 -23.2333 39.0439
