489

CA 45.1759 4.48549 38.4492
CA 12.6838 -25.8094 48.63
CA 35.5001 -28.625 51.3183
CA 42.777 -33.4237 41.5619
CA 7.53176 -23.7355 62.9677
CA 35.7018 -22.2283 86.052
CA 40.9623 -23.2794 32.7447
CA 16.8087 -10.2957 33.1862
CA 55.4601 -19.2582 72.1064
CA 33.6103 -27.3098 57.7394
CA 18.3048 -24.0067 60.1781
CA 13.9106 -11.2339 21.0178
CA 35.01 -23.2233 61.5144
CA 37.7771 -0.800255 40.9801
CA 20.0647 -11.811 22.4232
CA 16.6984 -21.4431 42.5437
CA 32.665 4.28371 47.2981
CA 40.4469 -33.891 62.8854
CA 34.6944 -22.5411 30.7346
CA 37.1902 -2.05455 37.5771
CA 7.56624 -3.79373 63.6082
CA 23.0008 -2.59347 52.3784
CA 18.6523 -21.5045 45.412
CA 17.6414 -34.669 42.0187
CA 31.3697 -4.05533 39.9604
CA 39.6317 -33.2655 79.8639
CA 37.2436 -8.47708 63.6724
CA 40.5621 -45.8153 59.857
CA 24.1869 -2.36832 50.8028
CA 20.381 -31.79 54.7769
CA 34.5218 -19.1862 41.5903
CA 42.93 0.127 40.2394
CA 16.1814 -26.407 39.2083
CA 5.32276 -18.1289 42.1543
CA 31.2816 -18.4356 63.2082
CA 21.4944 -27.8164 43.508
CA 13.8721 -20.6937 41.1312
CA 14.7904 -27.0569 59.8369
CA 47.9412 -18.7434 42.3942
CA 40.9449 2.98552 39.0799
CA 27.5893 -3.55998 32.9422
CA 44.1996 -26.2995 62.0952
CA 10.1987 -14.7007 59.8841
CA 40.4449 -37.1861 62.9485
CA 17.5858 -20.4364 30.9192
CA 27.5456 -20.3276 55.0759
CA 28.1196 -32.8516 46.8216
CA 40.1212 -25.9764 35.8379
CA 8.71584 -32.3612 44.8401
CA 53.9442 -26.4572 63.317
CA 18.5686 -28.5372 56.7572
CA 24.9361 3.71256 51.3286
CA 29.3858 -9.04422 61.3453
CA 6.51757 -31.23 40.5691
CA 7.49975 -21.1537 42.0451
CA 41.0211 -32.8716 44.8761
CA 32.6589 -47.0009 63.3261
CA 29.5788 -19.9404 66.6693
CA 29.6935 -46.1484 55.8626
CA 31.7316 1.01258 49.5505
CA 30.5357 -36.3855 60.0022
CA 26.4856 -29.8251 44.9188
CA 46.5686 -20.2485 39.2688
CA 30.11 -4.79872 28.9029
CA 12.2712 -21.3158 32.1672
CA 39.8689 -16.3337 54.1175
CA 49.5506 -43.116 57.3539
CA 5.94782 -11.333 4.7861
CA 35.6656 -39.9749 52.0811
CA 36.5818 -9.40706 60.7132
CA 36.2123 -22.3033 41.1378
CA 26.5323 -27.2161 63.8738
CA 43.0146 -18.7393 88.8897
CA 15.8139 -35.8992 35.3748
CA 31.7542 5.85127 35.8478
CA 18.9075 -10.5261 54.972
CA 37.5267 -10.6675 62.2722
CA 12.5751 -26.409 60.4714
CA 28.3938 4.75457 51.3346
CA 37.0183 -18.297 66.3586
CA 31.2396 -20.9789 79.8877
CA 8.47922 -21.6993 61.7604
CA 45.9404 1.42572 54.8251
CA 47.9281 -18.0792 61.8123
CA 37.9009 -20.1022 86.7941
CA 37.344 -15.9534 43.1577
CA 24.3739 -22.819 61.4582
CA 34.2957 -32.6392 40.3922
CA 28.7206 -11.6463 59.0573
CA 6.89336 -12.0726 17.0278
CA 36.5419 -17.973 81.6568
CA 13.8827 -32.5321 33.5597
CA 24.1796 0.545014 56.7522
CA 34.5135 -18.8985 81.8148
CA 43.5571 -22.3638 33.1313
CA 38.2381 -10.0434 64.5967
CA 40.6436 -27.5508 45.9067
CA 43.3516 2.8958 36.8574
CA 39.254 -15.1411 58.5601
CA 17.1681 -32.6283 41.7683
CA 29.8255 -23.975 34.3479
CA 46.3814 -17.2378 67.8025
CA 11.3622 -35.49 33.6426
CA 32.9144 -16.1223 69.7731
CA 12.1838 -26.0896 42.6652
CA 60.8258 -13.2262 48.9375
CA 27.8188 -5.17107 52.2801
CA 29.9772 2.49858 47.6961
CA 20.6632 3.65375 55.3812
CA 38.042 -5.32996 36.0545
CA 35.9932 -28.528 73.6454
CA 43.1746 -24.6036 47.7184
CA 28.7022 -38.4408 48.5332
CA 31.1071 -37.2294 63.5015
CA 35.2263 -34.8548 76.9039
CA 10.5771 -18.2863 17.5312
CA 56.9944 -16.3067 51.8571
CA 35.5167 -14.3028 81.4465
CA 43.914 -35.5676 59.5026
CA 55.9569 -36.5629 61.2564
CA 18.8588 -26.8619 53.3939
CA 43.408 1.7566 44.492
CA 37.0562 -37.9097 53.4593
CA 21.5085 -34.1806 34.9119
CA 14.4723 -10.8651 6.87227
CA 33.1687 -33.2436 87.0617
CA 51.56 -29.8412 58.97
CA 9.1852 -17.6986 16.0835
CA 34.6618 -26.2863 52.334
CA 54.6431 -13.3486 57.5659
CA 34.5513 -17.4176 59.268
CA 32.6238 -18.6424 28.3183
CA 20.658 -11.8268 26.4856
CA 42.5773 -6.06873 46.3166
CA 50.6367 -9.41609 53.8131
CA 22.9255 -8.12971 51.3672
CA 26.1406 -3.7554 36.6125
CA 18.6168 -35.4349 38.7181
CA 39.8542 -32.1198 63.4173
CA 43.7263 -3.81957 49.5779
CA 20.1345 -23.6421 64.3161
CA 43.5492 -28.3831 72.367
CA 28.8831 -11.6438 43.8828
CA 13.3874 -13.3276 3.12477
CA 12.8827 -21.8558 59.4698
CA 20.2931 -24.159 50.2351
CA 31.2246 -11.6951 31.5886
CA 30.1468 -24.4207 62.6523
CA 25.0236 -24.0723 75.7243
CA 37.4512 -32.7482 80.322
CA 32.8152 -26.0327 36.7385
CA 31.9617 -7.61429 58.5421
CA 50.2511 -37.87 65.0495
CA 52.3829 -22.546 63.993
CA 47.8914 -17.4386 59.2134
CA 53.186 -14.0404 53.8512
CA 51.1987 -5.91191 56.8278
CA 24.8425 -36.2929 35.7444
CA 40.3875 -43.1435 64.7482
CA 29.4384 -2.75018 35.3401
CA 41.8937 -20.9086 33.7576
CA 19.2786 -31.7654 37.9811
CA 45.0169 -29.208 48.3343
CA 36.1012 -18.2164 59.9723
CA 21.9812 -33.7239 42.2694
CA 45.8263 -32.0904 64.065
CA 22.3549 -11.5548 33.1667
CA 26.6513 -21.4301 71.0115
CA 35.5728 -17.8436 43.4129
CA 36.4495 -33.5726 34.5829
CA 29.9775 -36.3543 46.8992
CA 54.3086 -15.8815 50.2155
CA 17.331 -18.9823 37.3118
CA 35.5314 -30.1655 36.4361
CA 36.666 -36.6746 60.811
CA 53.1517 -30.4701 72.3164
CA 17.567 -12.4583 34.4506
CA 40.2633 -42.677 56.4505
CA 26.4239 1.62041 35.1353
CA 32.0378 -41.4113 44.8105
CA 58.9739 -17.0769 46.581
CA 60.2003 -26.1995 65.3664
CA 21.337 -31.4926 57.4076
CA 42.4648 -4.13284 36.2155
CA 43.829 -33.7026 55.0056
CA 24.6855 -26.1102 46.366
CA 20.7755 -25.6595 43.5752
CA 37.148 -27.4098 38.2879
CA 23.9042 -25.5585 56.3133
CA 37.9858 -12.0822 53.1473
CA 25.9468 -36.5451 86.5422
CA 39.1468 -4.19813 38.7169
CA 32.6452 -5.77471 44.0441
CA 41.4745 -27.9598 42.1199
CA 14.9752 -14.5709 23.2858
CA 47.0018 -15.5788 55.4879
CA 37.6913 -31.1185 74.1892
CA 24.0802 2.35262 58.0818
CA 47.1308 -33.6299 65.9711
CA 46.8577 -33.7289 64.0148
CA 12.9979 -12.9471 52.7199
CA 25.7082 -8.04699 61.8124
CA 32.9628 -16.5654 64.7342
CA 31.1199 -39.7021 50.1005
CA 59.1017 -17.4248 51.1962
CA 28.7665 -7.33043 30.4508
CA 36.9174 -33.6894 82.9481
CA 27.7684 -14.5739 58.7011
CA 34.7581 -8.26014 52.4599
CA 19.3837 -29.0626 50.9854
CA 34.3805 -21.3103 25.4073
CA 56.576 -16.8549 44.7937
CA 41.5013 -11.4348 54.6521
CA 1.31968 -11.7601 17.8683
CA 34.8912 -24.2206 47.1843
CA 26.6762 -12.567 33.0947
CA 16.6768 -10.9408 50.1333
CA 7.34546 -30.5855 38.0262
CA 46.7108 -3.04782 55.495
CA 36.2859 -14.8032 24.3668
CA 51.8081 -21.6069 62.3384
CA 22.7507 1.14983 59.8058
CA 21.0443 -21.6408 41.1706
CA 24.8954 -25.7549 54.2021
CA 48.9549 -0.650291 55.5138
CA 9.02234 -23.3739 43.4025
CA 14.3039 -21.9587 67.9539
CA 12.395 -29.2514 42.6192
CA 35.4737 1.03878 34.7422
CA 11.6878 -6.9827 61.4844
CA 27.8238 -21.4044 63.4559
CA 56.3357 -30.1151 70.7601
CA 54.4718 -28.688 59.8215
CA 47.2889 -29.6596 63.2943
CA 12.5874 -13.9664 18.8628
CA 46.6134 -21.7686 56.9085
CA 35.9994 -31.7443 40.6896
CA 32.7427 4.24202 49.3177
CA 9.95636 -8.00618 1.01564
CA 30.9913 -28.9088 71.9609
CA 46.2999 -8.2086 56.1445
CA 34.4601 -26.8555 74.4796
CA 21.1611 -18.2329 54.6406
CA 25.5812 -13.8597 30.4785
CA 29.7316 -25.7969 37.24
CA 49.6076 -17.8735 44.8078
CA 52.6753 -36.4597 58.7357
CA 25.8048 -28.2541 76.7771
CA 48.5223 -24.4517 70.6375
CA 30.5448 -44.6427 59.1403
CA 47.2317 -21.9793 44.9146
CA 32.8126 -31.4536 38.7855
CA 33.7633 -29.0695 35.2967
CA 48.566 -41.0898 60.1682
CA 55.1909 -8.83012 57.2671
CA 47.7821 -2.13798 59.6455
CA 44.5891 -24.9805 50.0998
CA 5.88448 -27.4015 51.3776
CA 43.6349 -30.9027 62.7225
CA 26.9523 -30.6407 79.199
CA 41.5033 -1.02657 46.0975
CA 32.5605 -15.3075 28.4503
CA 16.1826 -26.9382 50.9404
CA 21.707 -14.6649 23.9558
CA 51.527 -20.4378 74.2297
CA 35.0508 -8.14101 59.1952
CA 8.74097 -11.0646 5.22843
CA 13.724 -13.7694 50.8208
CA 22.6837 -2.06943 56.6387
CA 44.9496 -2.55201 50.2772
CA 34.7854 -32.1705 77.9719
CA 33.1728 -24.0589 46.5888
CA 46.922 -17.3096 41.7355
CA 13.9031 -21.5238 64.4066
CA 22.1131 -23.8235 43.8036
CA 19.7776 -16.8767 36.6306
CA 10.6217 -15.7755 52.343
CA 26.7437 -22.4248 52.9576
CA 42.4792 -2.3653 53.6413
CA 36.8897 -31.393 46.9336
CA 32.082 -1.16804 42.151
CA 7.26063 -30.0836 55.4059
CA 20.8711 -26.7902 61.2589
CA 36.9657 -20.481 91.603
CA 28.8991 -11.9356 46.8908
CA 45.1154 -15.1713 63.5352
CA 38.576 -0.757018 35.2535
CA 8.00287 -9.56866 2.057
CA 28.2536 -32.7524 83.1324
CA 39.2673 -28.2863 73.6002
CA 39.6612 -0.464136 45.0168
CA 14.102 -35.4352 45.2257
CA 31.7853 -14.5104 24.2938
CA 46.3364 -19.2135 43.3393
CA 27.4529 -4.72617 30.6222
CA 33.085 -1.66034 35.0439
CA 44.2373 -20.7109 51.042
CA 32.763 9.1561 49.462
CA 39.3161 -14.0013 52.7802
CA 46.7109 -25.3828 47.6125
CA 12.7312 -15.1298 56.7108
CA 30.1799 4.91912 50.7026
CA 32.4605 4.35407 35.0141
CA 38.8851 -9.82553 53.5701
CA 8.88876 -34.1848 42.0692
CA 29.2646 -14.2081 35.7144
CA 19.1945 -17.676 24.7469
CA 36.9061 -26.0668 56.1497
CA 12.169 -21.3327 27.7209
CA 33.7482 -3.60714 40.9512
CA 40.3489 0.148478 50.7537
CA 5.62068 -19.8819 61.67
CA 31.1232 -29.446 67.361
CA 30.9983 -41.8887 48.2291
CA 44.3656 -4.36613 58.3407
CA 23.6158 -18.4097 41.4944
CA 21.4884 -11.4094 35.0482
CA 36.5664 7.83528 56.8572
CA 11.7541 -25.1936 62.5108
CA 51.7593 -24.1795 71.0294
CA 38.2256 -3.28884 36.5445
CA 31.6899 -4.12045 29.9264
CA 7.58769 -24.1721 48.3928
CA 47.0657 -6.22641 46.0478
CA 54.328 -20.0565 58.7943
CA 55.1137 -17.3107 48.4568
CA 27.2474 -28.8251 40.5498
CA 51.6392 -29.4642 64.103
CA 24.3935 -3.41497 36.8965
CA 56.9006 -11.6747 55.4109
CA 28.6649 -9.46144 58.0021
CA 50.064 -21.0256 43.593
CA 41.4092 -42.7238 68.7699
CA 53.196 -22.1376 58.3263
CA 10.8696 -9.20172 5.55798
CA 30.6946 -24.6312 32.4773
CA 43.9384 -8.09983 53.906
CA 14.3211 -15.1866 29.3613
CA 36.4379 -21.576 29.9508
CA 32.6838 -34.5019 56.379
CA 47.757 -25.8796 58.7561
CA 4.82379 -9.32281 12.591
CA 4.08246 -24.9983 45.0879
CA 16.1075 -27.2514 61.9691
CA 58.9277 -26.0513 64.0543
CA 30.5968 -7.26081 50.9971
CA 11.0313 -21.4816 57.0241
CA 27.6338 -27.3033 37.2768
CA 11.7699 -18.1589 42.2236
CA 30.7372 -0.0317542 58.9285
CA 24.5812 -16.7514 56.1448
CA 31.2386 -19.254 57.9794
CA 51.193 -37.9256 62.1785
CA 5.90608 -7.82348 18.5798
CA 35.2371 -36.7294 58.48
CA 26.4479 -17.8831 57.033
CA 53.7651 -21.8688 71.1921
CA 46.4278 -22.7179 71.7781
CA 15.3805 -18.0769 41.3757
CA 44.7354 -19.7676 60.631
CA 14.4097 -25.0201 39.7862
CA 39.9201 -4.2915 47.6216
CA 33.7507 -21.2377 67.4789
CA 40.6737 -26.9748 49.641
CA 11.1209 -12.2905 49.4261
CA 32.4311 0.526813 44.9531
CA 30.6761 -20.3259 74.3139
CA 32.5937 -16.237 45.8322
CA 41.1494 -32.5875 72.0213
CA 46.5112 -29.6614 74.2257
CA 38.1995 -19.5779 56.3968
CA 10.1822 -25.5378 46.8218
CA 31.841 -15.3686 34.0248
CA 37.7433 -29.0084 76.333
CA 56.7633 -10.8407 48.487
CA 56.5862 -16.4469 59.5568
CA 6.56212 -14.6706 16.5673
CA 13.7384 -15.9458 52.5524
CA 23.6219 -21.128 71.199
CA 38.6714 -20.6211 30.9677
CA 49.1267 -28.6671 74.5152
CA 30.5315 -29.5272 58.2413
CA 12.8201 -15.6232 59.1243
CA 37.0553 -32.1561 63.8389
CA 34.9516 -23.5466 76.804
CA 12.1445 -35.1686 42.4382
CA 50.604 -38.5791 67.3962
CA 32.1965 -37.0244 53.6243
CA 32.4997 -31.1327 82.715
CA 9.92187 -10.8665 64.1145
CA 35.5462 -5.16357 63.5406
CA 44.4975 -40.1063 54.7507
CA 37.7352 -14.8973 67.783
CA 42.1844 -42.4973 65.7631
CA 35.12 -20.708 81.0268
CA 37.3358 -13.3899 36.7
CA 23.1005 -6.13367 40.7568
CA 33.7059 -16.1819 33.2742
CA 33.2908 -21.0906 55.0038
CA 52.6976 -39.1106 59.9204
CA 10.5033 -16.9122 40.2896
CA 32.5738 -35.1198 83.135
CA 14.6515 -30.7701 46.836
CA 37.0601 -22.3116 44.6628
CA 8.50355 -11.8215 3.60807
CA 16.6855 -36.7246 39.0041
CA 50.1602 -22.26 69.0196
CA 25.7408 -23.0122 65.202
CA 48.8305 -21.1571 68.3128
CA 48.4864 -39.3228 56.6436
CA 16.6051 -11.0552 53.9234
CA 31.4878 -8.92831 60.1123
CA 23.1679 -31.2768 54.6672
CA 28.0958 -10.2703 52.5505
CA 29.8314 -27.3094 63.4615
CA 30.9952 -16.1525 44.0078
CA 47.3797 -38.0644 52.8383
CA 46.7195 -20.1836 41.258
CA 15.9075 -16.0299 19.6362
CA 34.0611 -24.3925 37.1626
CA 11.0861 -12.64 7.30274
CA 53.8919 -16.5354 61.3448
CA 21.8514 -10.7497 51.489
CA 34.1184 -38.1403 50.2484
CA 35.3577 -22.6329 53.1823
CA 55.4004 -22.5981 70.681
CA 49.372 -23.7814 65.45
CA 10.5165 -11.4124 -0.221605
CA 10.8961 -22.3159 26.6415
CA 38.9944 3.84424 55.4448
CA 25.9937 -15.4049 42.8881
CA 49.2944 -12.8237 57.3461
CA 31.0004 -48.2351 54.8026
CA 53.2025 -18.3367 62.7331
CA 35.1023 -49.3297 54.4225
CA 42.0067 -17.2279 83.0772
CA 24.0781 -18.5249 38.596
CA 18.2339 -24.9972 39.8747
CA 32.0634 -38.5257 49.0722
CA 11.2172 -33.0773 41.0464
CA 40.5881 -14.871 50.6443
CA 27.2295 -16.9317 28.9491
CA 24.4673 -35.8478 46.1503
CA 27.9761 1.83705 36.1171
CA 48.1501 -6.90725 48.0572
CA 21.8442 -12.9234 43.7889
CA 24.9243 -10.6438 30.7225
CA 26.6155 1.30327 56.7191
CA 30.8312 -2.25144 44.2059
CA 13.5756 -22.306 17.075
CA 35.1231 -32.0606 85.1767
CA 47.4418 -10.7918 55.9149
CA 27.6103 -12.8578 41.7641
CA 16.3423 -21.838 35.4383
CA 48.0719 -16.4908 43.7962
CA 4.05324 -25.2628 49.6729
CA 38.5896 -19.5914 51.9627
CA 35.7281 5.13923 33.4834
CA 23.6403 -8.65612 28.8562
CA 32.1624 -0.385848 26.9774
CA 34.2825 -7.94039 65.705
CA 30.2377 -39.3104 57.422
CA 34.1392 8.23575 52.9887
CA 39.4396 -5.3924 62.1294
CA 36.0462 -13.6808 38.5798
CA 16.2586 -22.5652 49.8478
CA 7.24641 -6.76297 0.61851
CA 41.9476 -29.5071 74.9668
CA 23.7601 -7.29527 35.4485
CA 36.3217 -20.1672 62.9413
CA 22.559 -7.16498 37.3858
CA 18.2301 -12.552 27.7583
CA 39.7614 -21.2581 86.6081
CA 26.8661 -12.7894 48.323
CA 25.2637 -22.7664 51.2847
CA 7.99517 -21.2416 48.9653
CA 39.9001 0.143262 56.2523
CA 30.6808 -38.1244 50.9903
CA 37.5087 -6.40464 32.3722
CA 26.2791 -27.5428 33.6779
CA 5.29864 -7.5443 8.90823
CA 25.5285 -27.5938 50.7069
CA 12.2644 -17.5643 46.0863
CA 27.0525 -10.2611 50.7819
CA 15.5138 -17.2804 46.2563
CA 25.8865 -28.5002 82.9353
CA 39.0246 -6.03644 44.6106
CA 32.6326 -7.26173 42.6788
CA 24.3088 -28.477 48.1777
