489

CA 27.5644 -16.2488 72.8957
CA 25.5935 -43.9544 53.4283
CA 29.2936 -39.0202 46.9609
CA 35.4322 -0.487759 61.6872
CA 43.4828 -11.9093 53.6683
CA 19.4119 -18.6963 53.8421
CA 32.4606 3.53278 48.5092
CA 26.4418 -17.7779 45.062
CA 18.0025 -32.6751 48.7284
CA 37.7276 -25.5577 59.6078
CA 45.4901 -25.8501 43.3061
CA 38.8 -1.07479 46.2437
CA 21.4258 -34.1538 53.8575
CA 36.3813 -19.6217 76.354
CA 44.0476 -43.343 64.7111
CA 40.3476 -20.6249 31.2289
CA 54.279 -9.69599 48.3734
CA 17.4717 -32.1114 60.2787
CA 41.4025 -31.266 47.4234
CA 33.4038 -34.9 42.7254
CA 53.2595 -15.4999 36.9793
CA 38.5201 -34.3309 63.7255
CA 24.0821 -43.2798 58.3157
CA 27.5076 -8.83082 41.6717
CA 40.7026 -18.9323 49.1052
CA 21.8697 -24.4235 53.4001
CA 59.288 -20.5336 56.4831
CA 26.5946 -5.95064 35.143
CA 22.1943 -20.8479 76.2354
CA 39.8472 -11.2896 52.0967
CA 37.1657 -36.9608 48.2282
CA 47.0119 -18.6366 78.0033
CA 30.0597 0.971682 36.3629
CA 33.8626 -22.0156 60.9841
CA 34.9692 -0.733812 46.2701
CA 9.31888 -20.552 20.8045
CA 19.3411 -28.2786 34.9825
CA 10.3115 -20.6836 51.5471
CA 11.626 -18.3161 57.18
CA 45.2362 -25.1281 30.792
CA 31.2763 -13.4091 55.0951
CA 44.238 -8.70103 52.5748
CA 1.96054 -32.2402 41.6597
CA 9.37203 -18.8521 14.0489
CA 50.2976 -6.56015 46.3781
CA 10.4983 -36.8869 45.0857
CA 42.016 -34.8965 44.0382
CA 45.587 -13.2689 66.5359
CA 8.71584 -32.3612 44.8401
CA 54.0847 -13.3288 57.1717
CA 10.6076 -16.5204 56.6176
CA 40.8115 -18.7841 53.5512
CA 13.3806 -40.2758 41.443
CA 20.2984 -11.8072 58.7987
CA 21.7198 -23.9073 41.789
CA 32.4182 -23.4352 47.5695
CA 41.9833 -20.749 58.3057
CA 59.6795 -21.1844 58.5622
CA 47.9583 -14.8771 46.825
CA 37.9918 -22.4191 49.8537
CA 28.2574 -6.84344 72.9353
CA 39.6064 -1.66425 37.6465
CA 29.6972 3.24437 49.9193
CA 30.4848 -38.2242 52.6785
CA 27.899 6.6596 55.2606
CA 13.672 -21.1104 23.9503
CA 41.1767 1.53375 41.6742
CA 5.94782 -11.333 4.7861
CA 41.7131 -18.13 34.854
CA 45.8439 -16.3688 30.4879
CA 31.6831 -27.5725 54.1155
CA 29.3054 -7.8098 54.5455
CA 52.1667 -31.7475 64.5819
CA 14.1207 -27.495 55.8429
CA 13.2652 -13.5546 59.4727
CA 38.9265 -22.1301 81.393
CA 34.7191 -19.2857 55.7677
CA 23.5003 -21.2393 28.1138
CA 40.1598 -17.1262 29.8329
CA 28.3266 -37.5781 53.4367
CA 40.422 -40.9091 56.8803
CA 42.6199 -30.5366 75.857
CA 13.1591 -27.7661 33.7583
CA 37.4851 -10.145 72.9545
CA 22.2097 -19.4079 26.8185
CA 49.8084 -28.059 65.6354
CA 19.0526 -29.6572 55.6701
CA 37.8051 -7.83998 59.7145
CA 43.0825 -1.55997 56.8673
CA 6.89336 -12.0726 17.0278
CA 36.5419 -17.973 81.6568
CA 40.7683 -19.3178 62.6334
CA 29.5151 -9.26997 78.1215
CA 22.7812 -31.2578 43.9868
CA 43.5571 -22.3638 33.1313
CA 47.9315 -23.0646 42.6111
CA 6.58864 -32.9132 49.176
CA 28.0906 -4.27651 55.7798
CA 26.0532 -18.8442 51.1767
CA 37.2408 -40.1601 61.0413
CA 23.1468 -22.478 61.5275
CA 21.8638 -4.5591 34.2273
CA 37.0849 -41.3318 47.6368
CA 23.4855 -26.977 79.6699
CA 15.967 -32.0327 58.7352
CA 55.7801 -26.3678 63.6403
CA 0.720592 -10.2881 16.8893
CA 38.2637 -31.6677 43.9556
CA 37.9176 -2.96376 33.2072
CA 38.8387 -4.35083 54.322
CA 26.7113 -37.2215 46.5416
CA 8.79401 -27.1833 49.9686
CA 8.5154 -28.1718 45.951
CA 38.2938 -31.5367 40.9202
CA 52.6051 -21.1711 68.9444
CA 10.5771 -18.2863 17.5312
CA 50.9787 -10.8466 39.8464
CA 14.2325 -22.6153 42.8093
CA 35.2202 -35.3772 76.7275
CA 47.2807 -32.2232 41.8873
CA 41.4722 -14.2455 57.3903
CA 57.7085 -14.3174 48.183
CA 28.2262 -43.4616 54.2274
CA 21.5085 -34.1806 34.9119
CA 49.2939 -12.2764 48.2717
CA 44.2343 -31.4115 73.5039
CA 40.0338 -18.5963 71.1754
CA 24.7316 -19.9423 24.4746
CA 48.5545 -41.1558 67.3407
CA 9.80356 -13.4658 54.5784
CA 49.6596 -22.7357 66.9242
CA 45.359 -20.222 73.4968
CA 42.6603 -29.8948 72.8329
CA 46.4479 -44.8744 68.668
CA 50.6367 -9.41609 53.8131
CA 47.6366 -21.804 38.8566
CA 9.22214 -22.7837 47.9109
CA 40.2439 -35.1482 48.4468
CA 34.1231 -14.6044 73.4258
CA 53.3592 -35.5407 59.3107
CA 24.9892 -16.1647 61.88
CA 34.546 -14.6293 36.5726
CA 50.0913 -19.5723 55.8242
CA 13.3874 -13.3276 3.12477
CA 36.0665 -11.2013 51.0463
CA 52.0672 -36.4455 62.4045
CA 50.0455 -32.4889 44.8039
CA 51.5276 -23.0082 72.8023
CA 37.1319 -27.4797 54.5598
CA 37.4512 -32.7482 80.322
CA 23.2302 -19.2912 35.897
CA 48.0524 -14.6639 65.384
CA 18.0605 -17.4636 20.3201
CA 54.2617 -8.64954 39.1476
CA 49.6347 -17.5238 73.5531
CA 15.3168 -13.3972 35.573
CA 26.9857 -34.5741 52.9042
CA 38.2066 -27.9624 72.9117
CA 21.1743 -21.435 54.0097
CA 42.3655 -15.0529 86.3241
CA 43.2066 -17.873 52.2611
CA 50.7469 -13.57 36.3819
CA 24.345 -3.46393 37.5332
CA 33.5856 -30.4652 56.766
CA 40.5884 -4.21336 50.6556
CA 41.7893 -34.2029 40.3856
CA 37.5831 -17.4082 37.7362
CA 26.6513 -21.4301 71.0115
CA 26.336 -7.10056 41.1931
CA 34.2985 -27.4396 55.2788
CA 19.7865 -31.8187 34.6469
CA 33.431 -11.3274 62.1587
CA 14.0231 -33.9568 48.901
CA 43.442 -16.2978 77.123
CA 32.4951 -34.1907 47.6298
CA 44.2915 1.05201 53.8789
CA 34.6096 -28.1314 77.3064
CA 21.4739 -14.018 62.5016
CA 35.0615 -5.70422 34.8968
CA 51.7969 -17.3874 57.8748
CA 36.0355 -9.63073 59.4456
CA 44.0588 -12.7687 30.6236
CA 27.6802 -28.9663 54.4704
CA 30.5036 -10.4523 73.2943
CA 46.1493 -16.2744 74.5599
CA 18.3279 -16.0616 24.4811
CA 43.4232 -31.9836 64.7758
CA 13.8302 -23.2741 48.0395
CA 37.9572 -12.3445 61.6374
CA 30.74 -15.0712 52.9043
CA 11.3685 -29.4365 37.8404
CA 31.6736 -36.5161 50.6088
CA 18.0548 -20.5156 56.5676
CA 41.4745 -27.9598 42.1199
CA 25.7784 -6.27936 54.2267
CA 47.0018 -15.5788 55.4879
CA 55.6714 -14.7414 52.036
CA 18.6563 -20.7115 39.5204
CA 21.7186 -33.1935 55.971
CA 25.1679 -0.0447466 30.2553
CA 46.9927 -19.7765 42.7101
CA 7.81493 -6.2947 2.42161
CA 29.0541 -11.5379 72.8731
CA 30.2016 -17.5499 40.5197
CA 29.7938 4.89627 54.8918
CA 40.9236 -21.7769 51.035
CA 55.2194 -10.3954 38.7798
CA 46.2489 -46.011 71.5463
CA 21.4554 -14.4998 57.4172
CA 19.3837 -29.0626 50.9854
CA 52.1496 -22.4055 43.8837
CA 23.9809 -25.5817 50.1789
CA 37.3335 -6.31012 54.9285
CA 1.31968 -11.7601 17.8683
CA 47.3405 -26.4551 43.7788
CA 32.6019 -10.898 73.8471
CA 39.2665 -9.35509 49.4891
CA 39.321 -0.677626 34.9168
CA 37.4268 -26.5376 45.4802
CA 29.5297 -12.7759 70.1926
CA 30.8146 -19.6851 57.418
CA 33.4931 -24.2537 42.5147
CA 46.4519 -30.8203 66.9872
CA 47.7585 -28.9648 70.6383
CA 48.9549 -0.650291 55.5138
CA 37.6729 -9.70208 50.3566
CA 54.3477 -36.8065 55.1838
CA 38.1441 -25.645 51.0618
CA 19.4517 -23.2931 44.3908
CA 27.57 -24.0034 66.8704
CA 30.9349 -13.3254 48.2476
CA 15.3929 -7.2182 45.0314
CA 31.3915 -41.3263 61.7842
CA 42.063 -35.1054 65.142
CA 12.5874 -13.9664 18.8628
CA 23.2666 -10.3199 33.9922
CA 31.0934 -33.9862 55.609
CA 15.8871 -18.2661 25.9709
CA 9.95636 -8.00618 1.01564
CA 47.036 -37.8581 74.7126
CA 16.3243 -31.0385 56.7222
CA 36.199 -8.07607 50.4828
CA 53.2229 -21.3097 58.6957
CA 51.5464 -19.2495 39.6214
CA 29.7316 -25.7969 37.24
CA 41.8129 2.9109 54.2674
CA 46.2892 -9.36599 53.2461
CA 33.1654 -29.1774 45.837
CA 11.4672 -25.2876 51.4715
CA 29.6335 -12.4352 41.6753
CA 38.9796 -25.9129 29.8176
CA 43.8566 -16.0724 43.5129
CA 33.684 -2.31214 38.4091
CA 25.9577 -29.6664 84.0899
CA 25.2106 -22.7886 38.1407
CA 46.7164 -24.6513 46.8307
CA 6.16788 -34.1328 43.5956
CA 45.6098 -28.8947 29.7077
CA 32.7924 -31.9632 77.6876
CA 28.3809 2.08696 30.6996
CA 28.4677 -37.031 45.7898
CA 24.3155 -14.393 62.6767
CA 26.1172 -27.3671 84.1788
CA 26.7814 -24.7673 70.2121
CA 9.59955 -38.1069 41.6957
CA 36.3752 -31.0152 83.4096
CA 8.74097 -11.0646 5.22843
CA 50.1045 -23.6013 69.2688
CA 32.7188 -14.0077 38.7494
CA 27.345 -32.2059 56.3932
CA 19.0725 -25.38 56.0875
CA 22.3446 -32.1198 38.3739
CA 57.849 -14.5645 52.4455
CA 43.9775 -19.9622 21.8597
CA 22.8796 -23.1989 52.323
CA 19.7776 -16.8767 36.6306
CA 45.271 -16.6864 25.0733
CA 26.9398 -11.7499 31.4856
CA 28.6046 -19.495 60.8523
CA 43.7987 -2.2174 54.8276
CA 24.9425 -9.4931 36.3225
CA 42.9172 -23.9668 52.7465
CA 40.78 0.219524 38.1181
CA 30.6169 -26.663 76.4209
CA 8.88865 -20.4075 50.1512
CA 51.4587 -26.8704 61.503
CA 27.4438 -11.1736 44.6515
CA 6.74957 -7.47144 5.62169
CA 3.75841 -3.86668 1.76241
CA 23.7538 -19.882 29.4692
CA 36.7059 -3.69033 59.424
CA 37.0257 4.5392 39.3682
CA 42.2136 -29.2655 77.5688
CA 20.611 -29.9572 39.8429
CA 32.2719 -5.04497 43.569
CA 42.6267 -40.7484 70.7063
CA 31.9678 -13.7311 50.9413
CA 38.598 -12.6412 38.2696
CA 34.8633 -14.5203 64.1093
CA 41.4529 -29.3621 51.9834
CA 41.0667 -37.6554 62.1802
CA 40.5569 -21.8722 28.6854
CA 23.6314 -22.1798 42.0437
CA 14.9011 -12.7246 57.2914
CA 20.3502 -26.7009 67.2725
CA 31.9401 -46.1051 54.8439
CA 19.1945 -17.676 24.7469
CA 27.4165 -39.8356 58.6211
CA 23.3234 -29.0048 55.6458
CA 40.5978 3.18335 42.1853
CA 12.0019 -27.7027 48.1087
CA 37.2232 -35.7683 64.2404
CA 23.9485 -19.7501 63.1795
CA 24.4639 -29.2791 79.4782
CA 45.0193 -39.6085 60.6809
CA 4.98478 -32.112 46.7683
CA 42.0051 -13.4916 82.0885
CA 38.5896 -23.8412 64.5607
CA 41.1427 -20.4911 37.0639
CA 31.2222 -23.3641 45.8688
CA 53.099 -23.4476 60.0772
CA 27.1774 -1.20404 55.0955
CA 45.3942 -13.6048 72.7971
CA 57.4355 -23.529 59.431
CA 34.1649 -21.4909 46.484
CA 36.1278 -28.371 83.6741
CA 52.5999 -8.22255 56.3134
CA 22.4305 -15.3058 54.334
CA 47.9131 -23.5729 71.2879
CA 56.4868 -19.3796 59.2137
CA 44.0495 -29.3097 50.9108
CA 53.5283 -22.5863 73.5366
CA 54.9412 -13.8878 40.421
CA 32.1834 -21.3396 65.7839
CA 10.8696 -9.20172 5.55798
CA 22.2702 -19.2569 73.0477
CA 35.1232 4.88087 38.9702
CA 13.4859 -21.3197 54.6913
CA 23.7506 -3.39026 52.2632
CA 44.7738 -3.56389 55.6444
CA 26.5075 -3.00752 57.2565
CA 4.82379 -9.32281 12.591
CA 45.8721 -14.0047 69.4079
CA 18.149 -20.338 62.0259
CA 26.8357 -11.2893 77.348
CA 29.4867 -3.04591 57.0255
CA 35.1782 -3.47102 45.7363
CA 40.1477 -15.8865 81.6187
CA 43.2655 -17.5051 29.1348
CA 35.8975 -20.8346 47.7905
CA 44.0812 -14.6355 23.5705
CA 34.5224 -1.11421 32.1538
CA 54.8195 -27.6097 58.235
CA 5.90608 -7.82348 18.5798
CA 23.7112 -12.7934 57.0736
CA 29.1349 -23.3387 71.9737
CA 31.6482 -21.927 59.5822
CA 15.2766 -33.043 37.6921
CA 45.6784 -42.6523 68.0407
CA 54.1199 -21.1543 52.8066
CA 12.644 -30.6626 40.2827
CA 24.7276 -25.5435 63.8991
CA 11.6028 -15.201 57.5786
CA 53.5724 -18.5562 56.9944
CA 11.1209 -12.2905 49.4261
CA 30.1942 -31.0329 52.9904
CA 52.4425 -15.2377 73.1544
CA 41.9184 -19.9134 81.1121
CA 46.1342 -6.81436 48.6526
CA 30.1711 5.96869 56.9723
CA 25.5038 -26.2051 48.4253
CA 32.1106 -4.58358 54.0414
CA 55.4885 -30.6774 59.6295
CA 42.7988 -21.7055 50.5087
CA 28.7471 -28.8785 75.8529
CA 10.9155 -9.28874 46.0119
CA 6.56212 -14.6706 16.5673
CA 16.2424 -28.1896 37.094
CA 31.0124 -19.8718 75.1258
CA 23.348 -23.7439 63.0321
CA 21.7786 -18.0619 52.6407
CA 32.0798 -16.1026 56.0059
CA 36.3702 -29.5513 64.9787
CA 24.048 -13.8328 33.7322
CA 37.183 -36.2781 60.9631
CA 41.7527 -30.7542 69.4372
CA 32.9368 -9.92885 60.1508
CA 35.3224 -24.8915 74.9314
CA 33.2977 -17.9016 58.193
CA 39.1495 -22.3318 63.1999
CA 41.7714 -0.273581 53.5927
CA 44.599 -19.801 48.1308
CA 44.0221 -17.4319 33.8443
CA 31.0151 -40.233 55.3571
CA 19.4265 -20.242 24.7409
CA 13.7915 -18.5283 41.7517
CA 17.5512 -18.6145 27.476
CA 17.1934 -23.7375 69.3301
CA 27.2879 -14.1747 52.9063
CA 44.597 -35.857 43.6691
CA 41.3675 -9.51383 49.6992
CA 16.0557 -7.68962 55.3747
CA 36.4161 0.366407 44.5443
CA 52.9763 -24.1563 53.0849
CA 40.4148 2.84968 37.5002
CA 29.4642 -3.8635 37.596
CA 33.8 3.89954 62.2963
CA 41.6849 -37.0933 59.9311
CA 38.356 -21.8616 41.3769
CA 22.8602 -3.35352 53.9716
CA 25.2676 -8.83918 38.5183
CA 12.7135 -32.6228 42.4626
CA 42.9933 -13.717 70.8063
CA 53.0207 -21.5949 72.0692
CA 41.1953 -29.5619 40.7182
CA 50.9033 -16.1171 39.5733
CA 58.2275 -19.2399 50.8823
CA 38.5344 -20.2466 49.9653
CA 15.9075 -16.0299 19.6362
CA 30.7768 4.49219 64.4097
CA 34.4533 -30.3688 43.6592
CA 38.752 -16.0383 59.5081
CA 48.1622 -15.6577 74.5704
CA 30.9732 -15.7181 30.3687
CA 39.2983 -14.1546 37.3103
CA 16.599 -20.3304 49.4394
CA 31.455 0.367495 38.2507
CA 10.5165 -11.4124 -0.221605
CA 34.7142 -13.9313 42.5011
CA 39.8925 -16.4898 85.3283
CA 20.6624 -0.64468 51.9507
CA 53.4455 -19.3687 51.831
CA 31.0004 -48.2351 54.8026
CA 36.1397 -26.9786 56.0625
CA 34.9257 -33.344 86.642
CA 4.59177 -34.0895 44.6059
CA 24.0781 -18.5249 38.596
CA 3.53274 -31.8527 40.8615
CA 50.8747 -32.4837 66.8951
CA 40.8615 -10.9717 53.7817
CA 42.1703 -16.6868 88.6303
CA 27.2295 -16.9317 28.9491
CA 31.1395 -10.1207 80.1711
CA 27.9761 1.83705 36.1171
CA 48.1501 -6.90725 48.0572
CA 54.9198 -39.5453 65.0477
CA 30.3289 -11.6072 61.2759
CA 41.8787 -34.1011 60.4033
CA 34.201 -26.4287 77.9883
CA 13.5756 -22.306 17.075
CA 60.191 -26.5544 61.9532
CA 26.9162 -9.80399 35.1762
CA 27.0467 -25.8897 42.0769
CA 29.7617 -22.8105 70.2667
CA 48.0719 -16.4908 43.7962
CA 22.8641 -2.06399 50.2202
CA 25.8519 -11.7065 62.3053
CA 16.1507 -30.4531 36.3003
CA 29.5854 -27.9227 50.3127
CA 36.0986 -3.51196 34.7743
CA 32.9555 -27.8048 78.3793
CA 33.5045 -10.4899 68.408
CA 2.23244 -28.115 43.4538
CA 34.7835 -5.60011 43.3425
CA 30.2489 -2.17329 53.0749
CA 40.5938 -39.9594 61.4939
CA 7.24641 -6.76297 0.61851
CA 50.2839 4.00461 53.075
CA 45.6567 -38.8592 70.3614
CA 42.9261 -39.6837 68.7643
CA 8.02045 -28.9548 50.2244
CA 40.8778 -28.472 63.0073
CA 30.649 -13.1968 32.5922
CA 21.0736 -22.5572 37.3846
CA 21.29 -29.396 79.2606
CA 28.2673 -12.4911 49.9814
CA 23.2982 -23.5408 64.9719
CA 46.4065 -15.6114 44.2134
CA 18.8276 -18.7759 35.4188
CA 22.4225 -25.6473 44.1943
CA 5.29864 -7.5443 8.90823
CA 25.5285 -27.5938 50.7069
CA 56.8951 -23.2337 50.5701
CA 25.3926 -17.3862 50.1202
CA 43.9001 -41.6013 71.8263
CA 44.25 -32.285 41.318
CA 30.8723 -30.9205 83.0498
CA 32.6326 -7.26173 42.6788
CA 36.2582 -1.94838 40.7786
