489

CA 35.5866 -25.5726 56.0505
CA 35.164 -24.9396 63.6794
CA 29.2936 -39.0202 46.9609
CA 24.3255 -3.91939 40.8827
CA 36.661 4.68262 41.5968
CA 54.6249 -30.1854 65.6053
CA 22.1559 -30.7004 45.8784
CA 26.4418 -17.7779 45.062
CA 18.0025 -32.6751 48.7284
CA 37.7276 -25.5577 59.6078
CA 38.8934 -31.334 84.7353
CA 38.8 -1.07479 46.2437
CA 21.4258 -34.1538 53.8575
CA 51.6034 1.77459 55.5919
CA 34.0105 -16.2788 67.8143
CA 40.3476 -20.6249 31.2289
CA 54.279 -9.69599 48.3734
CA 17.4717 -32.1114 60.2787
CA 19.639 -32.6451 49.5899
CA 27.4521 -21.0071 34.6293
CA 46.37 -9.30936 59.7863
CA 4.17818 -33.9865 46.9728
CA 60.287 -13.3329 49.6099
CA 35.2422 -9.89405 43.187
CA 29.6874 -43.1673 59.9831
CA 49.5179 -17.4 47.6986
CA 32.0735 6.75676 61.6152
CA 26.5946 -5.95064 35.143
CA 40.4625 -28.6624 67.5218
CA 36.8129 -31.0679 79.7816
CA 34.0526 -24.45 58.4055
CA 53.1173 -27.1281 56.8692
CA 38.148 -27.5302 69.2162
CA 30.6313 -5.38161 38.8118
CA 40.3879 -38.4662 68.4634
CA 29.8075 -35.3229 52.1965
CA 20.4245 -2.37123 33.3339
CA 10.3115 -20.6836 51.5471
CA 11.626 -18.3161 57.18
CA 19.956 -5.23342 52.7782
CA 31.2763 -13.4091 55.0951
CA 44.238 -8.70103 52.5748
CA 1.96054 -32.2402 41.6597
CA 9.37203 -18.8521 14.0489
CA 50.2976 -6.56015 46.3781
CA 10.4983 -36.8869 45.0857
CA 33.9213 8.73609 57.095
CA 45.587 -13.2689 66.5359
CA 8.71584 -32.3612 44.8401
CA 43.4821 0.127913 55.3619
CA 10.6076 -16.5204 56.6176
CA 40.8115 -18.7841 53.5512
CA 50.9422 -25.1903 44.0238
CA 6.48002 -30.1367 45.629
CA 15.5129 -6.21182 42.0098
CA 32.4182 -23.4352 47.5695
CA 41.9833 -20.749 58.3057
CA 44.8635 -11.6162 53.5618
CA 13.6499 -6.73132 50.0049
CA 54.731 -30.2879 57.3916
CA 41.4211 -18.1707 45.272
CA 24.0797 -20.1465 49.8597
CA 29.6972 3.24437 49.9193
CA 30.4848 -38.2242 52.6785
CA 26.6979 -18.8769 60.097
CA 7.0597 -22.3456 42.8095
CA 12.1466 -15.397 61.0027
CA 5.94782 -11.333 4.7861
CA 13.1253 -11.1017 48.5331
CA 30.1017 4.41983 44.3681
CA 11.1423 -23.3518 49.3158
CA 29.3054 -7.8098 54.5455
CA 21.5493 -33.6877 41.6441
CA 9.37955 -23.8255 44.6768
CA 52.4301 -29.9078 67.4654
CA 38.9265 -22.1301 81.393
CA 40.2482 -29.2873 74.7673
CA 23.5003 -21.2393 28.1138
CA 40.1598 -17.1262 29.8329
CA 40.8296 -23.9396 70.1819
CA 40.422 -40.9091 56.8803
CA 42.6199 -30.5366 75.857
CA 39.1553 -8.96495 70.7611
CA 34.2734 -0.29679 53.7128
CA 41.1955 -5.22089 57.7586
CA 49.8084 -28.059 65.6354
CA 37.3846 -20.4236 51.008
CA 36.1826 -34.3667 85.0948
CA 38.2018 -20.6338 80.6966
CA 6.89336 -12.0726 17.0278
CA 36.5419 -17.973 81.6568
CA 46.3894 -17.0704 56.2574
CA 0.946685 -31.1683 45.7938
CA 22.7812 -31.2578 43.9868
CA 43.5571 -22.3638 33.1313
CA 47.5074 0.695324 56.9954
CA 46.6408 -39.0627 68.2992
CA 35.409 -34.3849 82.4601
CA 36.6725 -15.5908 79.5874
CA 27.9652 -38.1771 45.7723
CA 23.1468 -22.478 61.5275
CA 45.9208 -2.75937 58.2411
CA 8.9385 -40.8396 49.299
CA 18.9619 -0.676148 34.2969
CA 15.967 -32.0327 58.7352
CA 31.9868 -42.7544 55.4944
CA 0.720592 -10.2881 16.8893
CA 38.2637 -31.6677 43.9556
CA 32.9104 -9.55188 72.5507
CA 38.8387 -4.35083 54.322
CA 42.1643 -16.9398 61.896
CA 20.0961 -3.57381 29.458
CA 8.5154 -28.1718 45.951
CA 49.8161 -35.5705 61.5345
CA 45.1812 -23.6055 56.3179
CA 10.5771 -18.2863 17.5312
CA 44.8356 -18.9327 29.5582
CA 14.2325 -22.6153 42.8093
CA 35.2202 -35.3772 76.7275
CA 47.2807 -32.2232 41.8873
CA 41.4722 -14.2455 57.3903
CA 57.7085 -14.3174 48.183
CA 28.2262 -43.4616 54.2274
CA 24.9538 -1.55375 33.9792
CA 22.6563 -14.0558 55.6905
CA 57.9546 -29.1848 62.9188
CA 40.0338 -18.5963 71.1754
CA 24.7316 -19.9423 24.4746
CA 48.5545 -41.1558 67.3407
CA 19.1821 -20.8083 60.5368
CA 39.673 -23.3983 75.5904
CA 45.359 -20.222 73.4968
CA 17.1904 -32.1266 41.6684
CA 50.2008 -44.4669 63.3008
CA 30.058 -11.9998 50.4909
CA 38.9646 -7.48605 49.2223
CA 9.22214 -22.7837 47.9109
CA 40.2439 -35.1482 48.4468
CA 29.0954 -3.29151 51.5976
CA 53.3592 -35.5407 59.3107
CA 24.9892 -16.1647 61.88
CA 34.546 -14.6293 36.5726
CA 50.0913 -19.5723 55.8242
CA 13.3874 -13.3276 3.12477
CA 36.0665 -11.2013 51.0463
CA 37.3395 -35.5565 49.5386
CA 47.2838 -9.15982 54.1301
CA 21.0936 1.58882 47.6252
CA 41.7877 -29.2779 51.8061
CA 29.3983 -43.982 55.6465
CA 33.1432 -18.3078 40.9157
CA 50.0376 -10.8893 65.9491
CA 21.5416 -18.5621 33.6218
CA 43.867 -20.4288 58.2822
CA 20.4112 -32.154 39.7139
CA 39.2827 -23.9775 81.9623
CA 26.9857 -34.5741 52.9042
CA 38.2066 -27.9624 72.9117
CA 37.432 -21.5738 79.1348
CA 33.604 -27.0368 43.5332
CA 40.2524 -3.35303 38.6283
CA 16.5764 -2.39923 50.7824
CA 24.345 -3.46393 37.5332
CA 29.8858 -26.1065 46.2109
CA 40.5884 -4.21336 50.6556
CA 41.7893 -34.2029 40.3856
CA 37.5831 -17.4082 37.7362
CA 26.6513 -21.4301 71.0115
CA 41.2825 1.87685 48.5685
CA 34.2985 -27.4396 55.2788
CA 30.4662 -22.8542 29.1861
CA 34.6598 -17.234 41.3472
CA 26.7014 -35.7384 60.8864
CA 21.1857 -2.37307 47.7921
CA 32.4951 -34.1907 47.6298
CA 44.2915 1.05201 53.8789
CA 36.9762 1.83521 60.3849
CA 21.4739 -14.018 62.5016
CA 25.5716 -34.726 43.6792
CA 47.2522 -10.251 36.0825
CA 17.9742 -31.5954 38.9346
CA 31.9486 -36.6537 44.4782
CA 21.2199 -26.0057 47.0799
CA 18.0499 -6.84388 52.2956
CA 46.1493 -16.2744 74.5599
CA 18.3279 -16.0616 24.4811
CA 48.5918 -23.8589 57.4053
CA 13.8302 -23.2741 48.0395
CA 37.9572 -12.3445 61.6374
CA 30.74 -15.0712 52.9043
CA 11.3685 -29.4365 37.8404
CA 31.6736 -36.5161 50.6088
CA 25.97 -17.7218 42.3647
CA 41.4745 -27.9598 42.1199
CA 49.2733 -36.0498 59.1884
CA 8.01779 -27.7745 40.1366
CA 29.6724 -6.56308 40.7281
CA 35.5997 -21.5622 58.4662
CA 21.7186 -33.1935 55.971
CA 44.9523 -39.1869 57.0483
CA 46.9927 -19.7765 42.7101
CA 7.81493 -6.2947 2.42161
CA 53.1748 -32.4775 59.1009
CA 30.2016 -17.5499 40.5197
CA 49.071 -43.5401 64.8391
CA 40.3902 -18.7821 56.2242
CA 34.6627 -17.9794 78.1176
CA 46.2489 -46.011 71.5463
CA 21.4554 -14.4998 57.4172
CA 25.7472 -13.9103 63.9623
CA 30.672 -29.5556 53.1729
CA 55.325 -14.9359 45.0994
CA 51.6347 -29.9011 44.9311
CA 1.31968 -11.7601 17.8683
CA 47.3405 -26.4551 43.7788
CA 50.3697 -28.8961 59.5563
CA 39.2665 -9.35509 49.4891
CA -2.13684 -29.409 41.2231
CA 37.4268 -26.5376 45.4802
CA 32.9445 -33.6765 67.223
CA 30.8146 -19.6851 57.418
CA 24.0507 -23.9759 69.488
CA 10.6451 -23.6114 47.0648
CA 24.2702 -2.89928 55.5033
CA 48.9549 -0.650291 55.5138
CA 40.1883 -30.64 56.5358
CA 21.0352 -29.7463 58.274
CA 38.1441 -25.645 51.0618
CA 8.92305 -39.5786 46.5423
CA 27.57 -24.0034 66.8704
CA 18.4136 -14.6844 59.5771
CA 15.3929 -7.2182 45.0314
CA 42.498 -10.9449 75.2002
CA 42.063 -35.1054 65.142
CA 17.1255 -15.8662 14.8476
CA 42.0575 -41.4912 67.4939
CA 37.966 2.17915 47.8696
CA 38.9202 -28.1031 84.8007
CA 9.95636 -8.00618 1.01564
CA 47.036 -37.8581 74.7126
CA 36.1439 -18.4499 74.1855
CA 22.3247 -20.4805 67.7981
CA 49.7169 -11.4445 49.9069
CA 51.5464 -19.2495 39.6214
CA 29.7316 -25.7969 37.24
CA 19.8654 -11.4272 62.6077
CA 26.4393 -24.7109 50.8428
CA 33.1654 -29.1774 45.837
CA 35.7937 -20.174 82.2566
CA 28.9232 -26.4749 39.0126
CA 38.9796 -25.9129 29.8176
CA 43.8566 -16.0724 43.5129
CA 21.1151 -2.93912 31.7499
CA 25.9577 -29.6664 84.0899
CA 42.4175 -26.4131 58.8989
CA 7.84777 -40.6583 45.4157
CA 28.7877 -28.8853 76.1458
CA 24.0148 -1.68589 57.071
CA 25.0877 -7.87926 42.7293
CA 32.2759 -0.160579 36.0131
CA 30.0388 -20.5365 70.1316
CA 19.281 -3.16047 47.6387
CA 43.9202 -49.1899 68.2862
CA 43.9463 -2.47895 45.2123
CA 39.8419 -1.85965 44.2642
CA 36.3752 -31.0152 83.4096
CA 8.74097 -11.0646 5.22843
CA 50.1045 -23.6013 69.2688
CA 32.7188 -14.0077 38.7494
CA 21.0849 -25.8105 64.7315
CA 35.3058 -18.0535 72.5146
CA 23.6162 -20.6181 53.7342
CA 34.7025 -32.5455 88.8399
CA 42.4547 -19.8185 27.486
CA 22.8796 -23.1989 52.323
CA 19.7776 -16.8767 36.6306
CA 45.271 -16.6864 25.0733
CA 41.4842 -19.0802 41.6578
CA 28.6046 -19.495 60.8523
CA 43.7987 -2.2174 54.8276
CA 24.9425 -9.4931 36.3225
CA 42.9172 -23.9668 52.7465
CA 60.3133 -23.904 59.4103
CA 30.6169 -26.663 76.4209
CA 43.2817 -30.1954 67.6591
CA 51.744 -28.2975 56.0531
CA 27.4438 -11.1736 44.6515
CA 6.74957 -7.47144 5.62169
CA 3.75841 -3.86668 1.76241
CA 35.6977 0.887654 42.9359
CA 36.7059 -3.69033 59.424
CA 45.6495 -11.159 51.3265
CA 41.2007 -14.8045 76.2656
CA 41.7345 -10.3944 43.7607
CA 29.4512 -31.6691 58.6301
CA 28.7866 -8.06991 33.4229
CA 31.9678 -13.7311 50.9413
CA 38.598 -12.6412 38.2696
CA 34.8633 -14.5203 64.1093
CA 58.9321 -20.8129 60.8669
CA 41.0667 -37.6554 62.1802
CA 47.3098 -37.7148 67.1845
CA 23.6314 -22.1798 42.0437
CA 14.9011 -12.7246 57.2914
CA 20.3502 -26.7009 67.2725
CA 23.1143 -3.21963 43.275
CA 15.6927 -23.5737 41.6768
CA 27.4165 -39.8356 58.6211
CA 48.344 -25.067 71.3633
CA 40.5978 3.18335 42.1853
CA 31.2619 -22.0429 38.1172
CA 37.2232 -35.7683 64.2404
CA 23.9485 -19.7501 63.1795
CA 29.6113 -21.7941 32.6796
CA 44.8923 -34.6861 50.3459
CA 31.1592 -35.5553 58.4063
CA 49.7101 -25.8007 42.5239
CA 38.5896 -23.8412 64.5607
CA 41.1427 -20.4911 37.0639
CA 40.6958 -24.4711 43.4034
CA 2.11495 -29.2242 48.7009
CA 58.3489 -19.8556 58.6878
CA 18.3093 1.30637 46.7373
CA 30.1924 -17.5016 57.7659
CA 38.1348 -19.327 57.3933
CA 36.1278 -28.371 83.6741
CA 10.2919 -28.5117 47.3939
CA 19.0844 -27.152 47.8857
CA 52.6155 -22.1064 51.1386
CA 54.7538 -10.3356 46.3675
CA 44.0495 -29.3097 50.9108
CA 36.7029 -43.0594 58.2591
CA 34.865 -31.47 64.9273
CA 32.1834 -21.3396 65.7839
CA 10.8696 -9.20172 5.55798
CA 19.0884 -31.8644 61.1079
CA 53.6055 -16.4846 41.0966
CA 13.4859 -21.3197 54.6913
CA 24.0049 -11.7479 41.3899
CA 28.2602 -27.2697 81.5716
CA 56.5352 -22.5728 54.1817
CA 4.82379 -9.32281 12.591
CA 28.5353 1.50491 53.3252
CA 18.149 -20.338 62.0259
CA 23.761 -20.7292 32.1815
CA 29.4867 -3.04591 57.0255
CA 36.1186 -10.6481 73.5069
CA 38.2719 2.2498 37.8861
CA 43.2655 -17.5051 29.1348
CA 28.5145 -28.4631 73.7947
CA 44.0812 -14.6355 23.5705
CA 51.2506 -10.3008 63.643
CA 17.1726 -26.4509 65.837
CA 5.90608 -7.82348 18.5798
CA 38.1037 -15.4764 71.3085
CA 25.3755 -40.2624 57.9768
CA 31.6482 -21.927 59.5822
CA 40.7828 -25.3401 33.6151
CA 45.6784 -42.6523 68.0407
CA 56.046 -21.6404 62.0382
CA 47.8418 -42.3237 75.3476
CA 43.9678 -10.8725 57.2773
CA 22.9195 -25.8763 53.7661
CA 57.6667 -15.4923 45.3576
CA 46.6755 -16.4409 46.0788
CA 55.7333 -20.8208 57.2436
CA 28.0019 -19.8897 24.4528
CA 28.3943 -34.5467 43.894
CA 38.1458 -0.302814 33.4866
CA 30.1711 5.96869 56.9723
CA 47.0398 -11.4783 38.358
CA 29.1034 -24.5687 50.6755
CA 54.7198 -13.0925 48.3488
CA 35.9923 -42.4514 54.0095
CA 27.9579 -37.9645 48.1523
CA 42.1873 -24.7823 81.2932
CA 6.56212 -14.6706 16.5673
CA 32.3853 -20.5689 72.1884
CA 38.8606 -29.1982 56.8699
CA 50.2182 -29.7774 38.7742
CA 21.7786 -18.0619 52.6407
CA 39.2035 -11.1109 69.8572
CA 26.5643 -1.42167 45.9675
CA 24.048 -13.8328 33.7322
CA 34.3148 -3.59575 55.3164
CA 41.7527 -30.7542 69.4372
CA 32.9368 -9.92885 60.1508
CA 43.6353 -36.1991 53.8325
CA 33.2977 -17.9016 58.193
CA 41.9779 -26.1282 43.6467
CA 18.8926 -28.564 39.4472
CA 44.599 -19.801 48.1308
CA 44.0221 -17.4319 33.8443
CA 31.0151 -40.233 55.3571
CA 19.4265 -20.242 24.7409
CA 45.5882 -26.2684 47.8245
CA 44.6879 -31.0299 38.0611
CA 52.8353 -34.5619 63.0654
CA 27.2879 -14.1747 52.9063
CA 23.4611 -22.8084 63.6091
CA 41.3675 -9.51383 49.6992
CA 16.0557 -7.68962 55.3747
CA 19.3878 -5.31576 55.4578
CA 52.9763 -24.1563 53.0849
CA 4.4944 -42.3974 50.7735
CA 29.4642 -3.8635 37.596
CA 33.8 3.89954 62.2963
CA 43.7485 -21.873 26.1374
CA 38.356 -21.8616 41.3769
CA 29.7946 -20.9866 72.8163
CA 25.2676 -8.83918 38.5183
CA 30.4741 -23.2074 66.7922
CA 42.9933 -13.717 70.8063
CA 43.2583 -30.9937 51.9381
CA 41.1953 -29.5619 40.7182
CA 31.5781 -12.5244 52.2803
CA 21.3523 -15.4501 51.2644
CA 28.1248 -0.037895 37.5144
CA 15.9075 -16.0299 19.6362
CA 17.9633 -34.2593 58.7203
CA 39.1879 -44.3863 61.0385
CA 43.6167 -13.4218 42.1023
CA 16.7968 -27.7802 32.7867
CA 13.358 -27.6551 39.7978
CA 39.2983 -14.1546 37.3103
CA 54.0652 -13.5924 50.432
CA 31.455 0.367495 38.2507
CA 10.5165 -11.4124 -0.221605
CA 20.1054 -22.1885 41.3368
CA 39.8925 -16.4898 85.3283
CA 20.6624 -0.64468 51.9507
CA 12.4776 -19.472 54.4029
CA 38.2027 -44.7671 56.5206
CA 55.7659 -18.2278 60.31
CA 34.9257 -33.344 86.642
CA 4.59177 -34.0895 44.6059
CA 24.0781 -18.5249 38.596
CA 3.53274 -31.8527 40.8615
CA 10.4254 -17.5286 54.2604
CA 40.8615 -10.9717 53.7817
CA 27.3633 -25.0496 72.4761
CA 27.2295 -16.9317 28.9491
CA 42.6116 -20.7256 30.7078
CA 27.9761 1.83705 36.1171
CA 43.0785 -36.155 40.0765
CA 54.9198 -39.5453 65.0477
CA 36.2464 -46.1285 57.0699
CA 58.1216 -10.3288 41.7867
CA 21.725 -26.2292 61.4381
CA 11.1519 -14.6482 17.946
CA 29.4702 4.69426 39.3447
CA 31.8356 -4.10687 57.2565
CA 29.6823 -8.56795 39.4274
CA 37.4673 -44.6316 52.5082
CA 48.4266 -29.2808 46.3412
CA 17.973 -21.9405 44.1707
CA 49.2884 -24.2611 61.0995
CA 16.1507 -30.4531 36.3003
CA 29.5854 -27.9227 50.3127
CA 36.0986 -3.51196 34.7743
CA 32.9555 -27.8048 78.3793
CA 15.2186 -6.7367 47.9065
CA 2.23244 -28.115 43.4538
CA 34.7835 -5.60011 43.3425
CA 30.2489 -2.17329 53.0749
CA 40.5938 -39.9594 61.4939
CA 7.24641 -6.76297 0.61851
CA 50.2839 4.00461 53.075
CA 45.6567 -38.8592 70.3614
CA 41.9285 -10.2529 60.6784
CA 47.6927 -17.8187 29.4595
CA 40.8778 -28.472 63.0073
CA 34.1826 -8.62248 59.9741
CA 18.6062 -27.4752 30.1057
CA 49.0346 -45.796 75.123
CA 28.571 -21.7077 37.7732
CA 21.2927 -29.5606 37.3458
CA 21.8063 -31.0536 55.1701
CA 41.0671 3.65851 52.6618
CA 22.4225 -25.6473 44.1943
CA 5.29864 -7.5443 8.90823
CA 39.8402 0.448791 43.5129
CA 38.6593 -29.0174 52.9094
CA 25.3926 -17.3862 50.1202
CA 46.4931 -45.6269 61.9606
CA 44.25 -32.285 41.318
CA 30.8723 -30.9205 83.0498
CA 32.6326 -7.26173 42.6788
CA 36.2582 -1.94838 40.7786
