489

CA 35.5866 -25.5726 56.0505
CA 20.3744 -36.1646 59.4585
CA 37.1268 -27.3481 70.9686
CA 34.9827 -22.3297 75.2782
CA 34.754 -19.4283 56.2705
CA 54.6249 -30.1854 65.6053
CA 14.9275 -12.5525 42.4516
CA 26.4418 -17.7779 45.062
CA 50.3664 -5.77279 51.247
CA 44.8019 -15.6932 71.704
CA 24.1531 5.34665 48.3096
CA 49.4975 -48.8484 76.6608
CA 12.6347 -24.1649 45.3303
CA 23.0779 -25.2909 36.9076
CA 39.7263 -31.8081 71.6795
CA 40.3476 -20.6249 31.2289
CA 28.2608 -15.9246 48.2653
CA 33.7041 -25.4646 42.1914
CA 34.1903 -15.4055 42.5283
CA 27.2839 -21.1581 33.4566
CA 29.7045 -25.9831 53.5721
CA 4.17818 -33.9865 46.9728
CA 36.9996 -32.2817 90.221
CA 35.2422 -9.89405 43.187
CA 18.3449 -32.6071 46.8327
CA 49.5179 -17.4 47.6986
CA 32.0735 6.75676 61.6152
CA 21.1887 -16.89 39.2841
CA 22.7606 -8.88602 32.2892
CA 36.8129 -31.0679 79.7816
CA 52.5025 -10.0911 42.4795
CA 19.213 -29.5407 47.81
CA 38.148 -27.5302 69.2162
CA 23.8352 -28.5682 81.0527
CA 31.6932 -17.6622 32.7058
CA 29.8075 -35.3229 52.1965
CA 44.5911 -14.424 69.8627
CA 10.3115 -20.6836 51.5471
CA 15.0509 -9.23109 40.2753
CA 40.7237 -29.8917 36.0011
CA 38.5385 -31.6073 41.5648
CA 31.5738 -15.3529 49.2227
CA 19.7267 -15.4888 61.524
CA 9.37203 -18.8521 14.0489
CA 50.2976 -6.56015 46.3781
CA 40.1577 -1.74209 53.2573
CA 43.7859 -31.146 43.6756
CA 45.587 -13.2689 66.5359
CA 8.71584 -32.3612 44.8401
CA 38.3532 -12.4392 46.3359
CA 34.5854 -0.383841 43.9848
CA 40.8115 -18.7841 53.5512
CA 50.9422 -25.1903 44.0238
CA 6.48002 -30.1367 45.629
CA 34.3054 -17.5271 61.9337
CA 50.0264 -18.6913 43.5635
CA 41.9833 -20.749 58.3057
CA 44.8635 -11.6162 53.5618
CA 13.6499 -6.73132 50.0049
CA 40.0312 -1.43564 38.9426
CA 41.4211 -18.1707 45.272
CA 24.3106 -13.2763 61.7672
CA 28.25 -35.1079 46.6605
CA 37.3822 -41.0684 62.7027
CA 23.2221 -21.2264 43.8583
CA 7.0597 -22.3456 42.8095
CA 46.3955 -34.288 77.1367
CA 5.94782 -11.333 4.7861
CA 13.1253 -11.1017 48.5331
CA 10.8105 -10.9842 55.4526
CA 23.9514 -30.6764 43.6488
CA 29.3054 -7.8098 54.5455
CA 21.5493 -33.6877 41.6441
CA 30.9641 -39.8627 43.0561
CA 29.1088 -25.8026 41.1749
CA 24.5498 -8.25794 40.2771
CA 39.1215 -19.0174 78.5997
CA 23.5003 -21.2393 28.1138
CA 40.1598 -17.1262 29.8329
CA 40.8296 -23.9396 70.1819
CA 40.422 -40.9091 56.8803
CA 46.8415 -44.2197 67.4674
CA 31.7783 -41.0822 46.3943
CA 32.1024 -26.1961 52.6346
CA 43.2414 -44.7171 68.5761
CA 29.6035 -27.649 37.0336
CA 37.3846 -20.4236 51.008
CA 36.1826 -34.3667 85.0948
CA 38.2018 -20.6338 80.6966
CA 6.89336 -12.0726 17.0278
CA 36.5419 -17.973 81.6568
CA 46.3894 -17.0704 56.2574
CA 0.946685 -31.1683 45.7938
CA 29.0962 -33.5836 57.2482
CA 43.5571 -22.3638 33.1313
CA 47.5074 0.695324 56.9954
CA 46.6408 -39.0627 68.2992
CA 23.6267 -32.5939 60.753
CA 21.1933 -10.093 63.125
CA 27.9652 -38.1771 45.7723
CA 9.4628 -18.3147 55.9706
CA 45.9208 -2.75937 58.2411
CA 53.0477 -19.6935 51.8945
CA 44.7115 1.90284 54.0193
CA 8.13581 -30.1327 49.9377
CA 31.9868 -42.7544 55.4944
CA 0.720592 -10.2881 16.8893
CA 38.2637 -31.6677 43.9556
CA 29.2346 -19.4512 33.7968
CA 38.8387 -4.35083 54.322
CA 42.1643 -16.9398 61.896
CA 23.9927 -21.9037 30.3642
CA 30.3944 -7.63964 42.8542
CA 49.8161 -35.5705 61.5345
CA 37.3057 -24.7093 80.3943
CA 10.5771 -18.2863 17.5312
CA 44.8356 -18.9327 29.5582
CA 40.989 -50.8887 64.6105
CA 35.2202 -35.3772 76.7275
CA 20.9494 -20.3715 40.1782
CA 41.4722 -14.2455 57.3903
CA 57.7085 -14.3174 48.183
CA 28.2262 -43.4616 54.2274
CA 24.9538 -1.55375 33.9792
CA 29.4264 -3.28034 41.1086
CA 45.6228 -28.6745 37.5631
CA 5.55138 -14.6378 53.766
CA 19.2405 -30.1779 58.0445
CA 48.4639 -1.11627 44.8709
CA 7.03632 -33.6672 44.7364
CA 36.8063 -29.3164 53.1665
CA 32.4628 -0.892514 41.6595
CA 42.7283 -0.11978 35.7661
CA 34.1601 -9.9373 53.1684
CA 30.058 -11.9998 50.4909
CA 38.9646 -7.48605 49.2223
CA 44.3021 -18.1078 53.217
CA 29.4405 -16.9573 29.0645
CA 29.0954 -3.29151 51.5976
CA 35.1242 -1.16344 60.3307
CA 24.9892 -16.1647 61.88
CA 34.546 -14.6293 36.5726
CA 57.6677 -33.6017 65.8159
CA 13.3874 -13.3276 3.12477
CA 36.0665 -11.2013 51.0463
CA 31.8639 -28.1611 56.564
CA 10.8541 -25.9775 48.7839
CA 21.0936 1.58882 47.6252
CA 41.7877 -29.2779 51.8061
CA 29.3983 -43.982 55.6465
CA 33.1432 -18.3078 40.9157
CA 45.1804 -14.3936 29.6332
CA 21.5416 -18.5621 33.6218
CA 43.867 -20.4288 58.2822
CA 34.0587 -25.9732 80.0036
CA 22.9089 -33.0439 58.5077
CA 42.2076 -49.5152 69.6527
CA 38.2066 -27.9624 72.9117
CA 32.0559 -35.0562 83.3157
CA 31.9843 -18.0954 67.8029
CA 34.9512 -27.8756 70.1751
CA 16.5764 -2.39923 50.7824
CA 10.3708 -23.4795 55.2874
CA 29.8858 -26.1065 46.2109
CA 40.5884 -4.21336 50.6556
CA 20.1539 -31.1271 34.6606
CA 31.739 -38.1175 50.5007
CA 26.6513 -21.4301 71.0115
CA 41.2825 1.87685 48.5685
CA 14.4 -2.65144 48.6031
CA 34.2306 -18.9007 76.2709
CA 34.6598 -17.234 41.3472
CA 33.942 -20.2839 81.5306
CA 21.1857 -2.37307 47.7921
CA 34.984 -18.4269 31.036
CA 38.1214 -32.5985 68.8996
CA 45.6112 -36.2532 64.2471
CA 21.4739 -14.018 62.5016
CA 22.6389 -13.8749 36.5612
CA 15.5952 -30.0306 50.2122
CA 17.9742 -31.5954 38.9346
CA 31.9486 -36.6537 44.4782
CA 28.8137 2.79189 38.9071
CA 42.6881 -45.4495 65.0698
CA 46.1493 -16.2744 74.5599
CA 18.3279 -16.0616 24.4811
CA 48.5918 -23.8589 57.4053
CA 13.8302 -23.2741 48.0395
CA 37.9572 -12.3445 61.6374
CA 22.0657 -6.73932 35.8804
CA 11.3685 -29.4365 37.8404
CA 48.8795 -34.4558 67.603
CA 25.97 -17.7218 42.3647
CA 41.4745 -27.9598 42.1199
CA 17.7987 -34.1943 43.0522
CA 8.01779 -27.7745 40.1366
CA 39.0464 -10.2413 45.6622
CA 32.9109 -26.3331 54.8261
CA 33.633 -10.7857 43.9714
CA 44.9523 -39.1869 57.0483
CA 46.9927 -19.7765 42.7101
CA 7.81493 -6.2947 2.42161
CA 28.5986 -8.8977 40.9079
CA 57.3906 -20.2096 54.3176
CA 46.8543 -35.303 52.5158
CA 40.3902 -18.7821 56.2242
CA 38.2272 -20.1649 32.0208
CA 38.2772 -27.9144 58.9285
CA 24.1482 -30.0734 36.5254
CA 25.7472 -13.9103 63.9623
CA 56.3047 -18.5109 48.5306
CA 34.8279 -39.8458 60.6609
CA 8.71527 -25.4481 46.757
CA 1.31968 -11.7601 17.8683
CA 47.3405 -26.4551 43.7788
CA 50.3697 -28.8961 59.5563
CA 53.1854 -25.9668 43.3591
CA 42.5062 -4.72511 44.3703
CA 38.3117 -11.6686 67.5966
CA 31.7912 -24.0438 34.0094
CA 30.8146 -19.6851 57.418
CA 24.0507 -23.9759 69.488
CA 51.7589 -33.3253 62.3209
CA 24.2702 -2.89928 55.5033
CA 27.2615 -3.19246 54.3726
CA 40.1883 -30.64 56.5358
CA 44.1474 -32.0685 39.4512
CA 38.1441 -25.645 51.0618
CA 46.8998 -44.3869 72.4654
CA 27.57 -24.0034 66.8704
CA 18.4136 -14.6844 59.5771
CA 15.3929 -7.2182 45.0314
CA 8.84139 -12.7999 55.5957
CA 42.063 -35.1054 65.142
CA 17.1255 -15.8662 14.8476
CA 36.6389 -42.2371 50.8204
CA 24.4659 -2.75333 60.5628
CA 21.5137 1.86013 49.5971
CA 9.95636 -8.00618 1.01564
CA 47.036 -37.8581 74.7126
CA 16.5613 -24.3212 55.7691
CA 37.7163 -15.6642 81.8868
CA 49.7169 -11.4445 49.9069
CA 51.5464 -19.2495 39.6214
CA 29.7316 -25.7969 37.24
CA 31.7848 -16.5856 25.3055
CA 26.4393 -24.7109 50.8428
CA 33.1654 -29.1774 45.837
CA 39.9963 -32.521 56.0988
CA 28.8721 7.56785 59.3501
CA 38.9796 -25.9129 29.8176
CA 22.1636 -36.2307 58.1132
CA 21.1151 -2.93912 31.7499
CA 25.9577 -29.6664 84.0899
CA 51.5043 -17.2521 47.9458
CA 28.8444 -36.4986 53.797
CA 28.7877 -28.8853 76.1458
CA 60.8018 -14.5766 47.7837
CA 5.6791 -13.6648 52.2469
CA 47.5048 -4.79312 52.7107
CA 30.0388 -20.5365 70.1316
CA 19.281 -3.16047 47.6387
CA 43.9202 -49.1899 68.2862
CA 43.9463 -2.47895 45.2123
CA 48.2394 -46.2229 75.5233
CA 45.6408 4.40556 37.4393
CA 8.74097 -11.0646 5.22843
CA 44.648 0.323089 48.8158
CA 41.886 -44.7021 66.5959
CA 32.825 -27.3112 37.0452
CA 43.1303 -26.0904 49.1367
CA 23.6162 -20.6181 53.7342
CA 34.7025 -32.5455 88.8399
CA 47.4182 -18.0342 77.1656
CA 14.1837 -5.63074 39.9726
CA 22.9222 -10.6899 62.4069
CA 42.7616 7.40384 55.3615
CA 40.8997 -27.0219 39.6521
CA 44.2449 -37.4169 51.7305
CA 43.7987 -2.2174 54.8276
CA 30.537 -20.9455 35.3054
CA 42.9172 -23.9668 52.7465
CA 40.2953 -11.104 48.7098
CA 52.1515 -26.534 60.913
CA 39.0195 -20.2562 63.0427
CA 51.744 -28.2975 56.0531
CA 26.7643 -17.1382 35.0922
CA 6.74957 -7.47144 5.62169
CA 3.75841 -3.86668 1.76241
CA 17.4666 -0.634262 50.8043
CA 36.7059 -3.69033 59.424
CA 31.1249 -9.81438 60.8786
CA 39.7081 -4.70012 35.3802
CA 41.7345 -10.3944 43.7607
CA 26.0368 -24.0711 62.2072
CA 34.4397 -35.5091 87.8083
CA 33.1488 -1.89406 34.8151
CA 17.1074 -30.0962 43.5761
CA 38.1109 -41.1189 52.2403
CA 20.6991 -11.7605 58.9191
CA 41.0667 -37.6554 62.1802
CA 18.3464 -28.2424 33.805
CA 24.5415 -6.04414 37.7219
CA 32.1053 -27.3745 41.7406
CA 20.3502 -26.7009 67.2725
CA 23.1143 -3.21963 43.275
CA 15.6927 -23.5737 41.6768
CA 27.4165 -39.8356 58.6211
CA 47.1853 -32.6264 42.862
CA 40.9796 -38.1412 58.9726
CA 50.5608 -20.9241 35.241
CA 37.2232 -35.7683 64.2404
CA 17.7444 -1.9625 52.3233
CA 42.0837 -35.7496 55.9031
CA 44.2059 -15.6609 28.2053
CA 22.3245 -17.4567 47.0174
CA 39.4552 -19.9685 51.2689
CA 32.9532 -26.5512 75.3498
CA 41.1427 -20.4911 37.0639
CA 24.9322 -35.1162 43.9995
CA 19.6737 -33.2941 42.1281
CA 58.3489 -19.8556 58.6878
CA 50.3514 -34.1589 66.3856
CA 30.1924 -17.5016 57.7659
CA 30.0762 -11.7425 40.4552
CA 36.1278 -28.371 83.6741
CA 23.7286 -24.2943 49.3635
CA 19.0844 -27.152 47.8857
CA 19.0896 -35.1035 52.7306
CA 54.7538 -10.3356 46.3675
CA 43.6742 -13.8732 64.8815
CA 43.0232 -26.2552 41.1346
CA 34.865 -31.47 64.9273
CA 45.1115 -9.4251 64.3837
CA 10.8696 -9.20172 5.55798
CA 19.0884 -31.8644 61.1079
CA 32.6529 -37.5209 81.7353
CA 13.4859 -21.3197 54.6913
CA 44.7044 -21.7239 59.456
CA 52.7341 -10.8901 49.3665
CA 56.5352 -22.5728 54.1817
CA 4.82379 -9.32281 12.591
CA 24.9077 -19.1186 71.6238
CA 34.2003 -22.236 58.6787
CA 26.2098 -24.9291 73.4807
CA 34.3429 2.88632 33.3201
CA 36.1186 -10.6481 73.5069
CA 37.5596 -0.372601 36.8047
CA 43.2655 -17.5051 29.1348
CA 58.5056 -21.1263 51.1808
CA 44.0812 -14.6355 23.5705
CA 33.8551 -30.1216 87.9592
CA 38.5288 -9.70532 51.6118
CA 5.90608 -7.82348 18.5798
CA 38.1037 -15.4764 71.3085
CA 16.6229 -25.2171 43.2199
CA 31.6482 -21.927 59.5822
CA 40.7828 -25.3401 33.6151
CA 1.54714 -28.2991 42.5141
CA 29.4721 -13.0363 59.9562
CA 47.8418 -42.3237 75.3476
CA 18.3713 -22.3315 54.632
CA 51.9722 -28.7925 65.3138
CA 32.2497 -26.924 84.6743
CA 46.6755 -16.4409 46.0788
CA 32.8021 -15.5083 52.2686
CA 35.9285 2.07043 40.1828
CA 39.5277 -1.42839 41.9791
CA 38.0675 -1.88389 47.4282
CA 41.712 -29.288 27.5565
CA 36.579 -31.5003 55.9353
CA 29.1034 -24.5687 50.6755
CA 37.677 0.55525 35.2583
CA 35.9923 -42.4514 54.0095
CA 39.931 -14.4292 64.5653
CA 10.9513 -16.8014 57.5266
CA 6.56212 -14.6706 16.5673
CA 32.3853 -20.5689 72.1884
CA 21.7241 -19.7017 57.6409
CA 23.6209 -33.4977 50.2439
CA 18.9185 -28.1028 52.5954
CA 51.4593 -9.93104 52.856
CA 33.5047 -20.4257 48.9315
CA 18.8838 -32.6746 52.9993
CA 34.3148 -3.59575 55.3164
CA 62.5654 -18.0083 45.8027
CA 40.0399 -21.9487 40.497
CA 42.1061 -42.8399 62.2813
CA 33.2977 -17.9016 58.193
CA 23.3394 -35.5167 59.3528
CA 40.5701 -37.2002 53.7176
CA 44.599 -19.801 48.1308
CA 14.5021 -13.6922 61.1469
CA 31.0151 -40.233 55.3571
CA 19.4265 -20.242 24.7409
CA 45.5882 -26.2684 47.8245
CA 12.5036 -6.54338 43.0912
CA 40.2391 -47.4349 65.9814
CA 11.4864 -10.9658 59.6091
CA 36.9437 -23.6095 71.7418
CA 41.3383 -17.9785 79.6935
CA 32.3297 4.13623 40.8727
CA 19.3878 -5.31576 55.4578
CA 52.9763 -24.1563 53.0849
CA 31.5408 -34.1291 52.097
CA 29.4642 -3.8635 37.596
CA 33.8 3.89954 62.2963
CA 36.3116 4.74072 42.7745
CA 38.356 -21.8616 41.3769
CA 32.1017 -28.9141 80.9797
CA 25.2676 -8.83918 38.5183
CA 59.4106 -24.3719 48.634
CA 42.9933 -13.717 70.8063
CA 37.9709 -39.75 64.0982
CA 41.1953 -29.5619 40.7182
CA 22.1711 -30.046 34.5622
CA 23.8498 -27.8262 70.2288
CA 28.1248 -0.037895 37.5144
CA 15.9075 -16.0299 19.6362
CA 56.4655 -21.1953 44.7432
CA 39.1879 -44.3863 61.0385
CA 42.1127 -12.2934 37.4284
CA 43.4668 -8.15098 62.8977
CA 13.358 -27.6551 39.7978
CA 39.2983 -14.1546 37.3103
CA 11.4738 -13.5345 55.1646
CA 26.5168 -9.64791 35.3766
CA 10.5165 -11.4124 -0.221605
CA 20.1054 -22.1885 41.3368
CA 53.9479 -5.90823 44.3573
CA 24.0087 -29.2714 73.9041
CA 12.4776 -19.472 54.4029
CA 39.818 -15.9656 74.3934
CA 28.6644 -16.913 71.7338
CA 7.76833 -28.6376 48.0868
CA 3.21985 -33.6264 48.4943
CA 24.0781 -18.5249 38.596
CA 23.8613 -33.4697 42.2392
CA 32.4251 -4.4633 39.5396
CA 41.748 -40.576 53.3229
CA 29.9786 -10.1731 42.4647
CA 27.2295 -16.9317 28.9491
CA 22.7668 -8.43352 61.2674
CA 23.7832 -18.9418 48.3032
CA 18.7486 -3.60194 59.3245
CA 28.5714 -23.149 47.3936
CA 32.1576 -45.0973 52.0653
CA 58.1216 -10.3288 41.7867
CA 43.7092 -31.2954 64.2608
CA 11.1519 -14.6482 17.946
CA 47.6045 -4.87897 42.6985
CA 19.3698 0.169039 50.5019
CA 29.6823 -8.56795 39.4274
CA 35.3999 -45.7514 50.2289
CA 11.7791 -26.0223 52.5372
CA 17.973 -21.9405 44.1707
CA 49.2884 -24.2611 61.0995
CA 45.872 -29.5624 50.7725
CA 27.0002 -28.1207 60.0292
CA 42.3887 -10.6457 25.5474
CA 27.4018 -9.29696 45.8651
CA 21.6762 -4.8806 37.6567
CA 7.81072 -36.734 47.7332
CA 31.7213 -13.3326 51.181
CA 30.2489 -2.17329 53.0749
CA 48.8091 -26.3255 55.2437
CA 9.46988 -10.188 1.64703
CA 50.2839 4.00461 53.075
CA 45.01 2.02085 49.9863
CA 41.9285 -10.2529 60.6784
CA 47.0728 -34.0732 47.2284
CA 40.8778 -28.472 63.0073
CA 49.7554 -0.297699 51.9172
CA 28.0482 -33.9232 59.5671
CA 61.7619 -11.6364 51.009
CA 50.1528 -30.0359 61.1311
CA 21.2927 -29.5606 37.3458
CA 10.8636 -17.3304 59.332
CA 44.2132 4.1457 53.1117
CA 22.4225 -25.6473 44.1943
CA 5.29864 -7.5443 8.90823
CA 20.4511 -28.9493 50.3488
CA 41.816 2.2967 39.6854
CA 40.6891 -8.06764 59.6932
CA 43.7456 -19.4766 27.0449
CA 30.7197 -16.7805 62.2188
CA 30.8723 -30.9205 83.0498
CA 56.8987 -16.9227 53.024
CA 34.6808 -23.8451 62.9351
