489

CA 41.6151 -38.289 57.2566
CA 31.7493 -19.2093 33.7398
CA 33.6607 -25.7907 49.8981
CA 34.9827 -22.3297 75.2782
CA 34.754 -19.4283 56.2705
CA 22.38 -18.3416 41.8778
CA 14.9275 -12.5525 42.4516
CA 45.5131 -10.5086 83.0529
CA 40.3305 -20.3829 54.6629
CA 41.543 -38.0637 67.4877
CA 6.71392 -26.6302 48.7586
CA 27.029 -29.9615 73.8601
CA 34.4337 -32.8594 54.4591
CA 23.0779 -25.2909 36.9076
CA 49.0538 -41.8764 77.8808
CA 40.3476 -20.6249 31.2289
CA 26.2873 -9.58234 36.7053
CA 33.0164 -19.5947 72.8176
CA 42.4137 -28.956 66.805
CA 35.6907 -30.3485 74.7431
CA 36.737 -10.2683 57.3141
CA 29.229 -39.2687 55.5774
CA 34.1738 -3.35366 51.8392
CA 38.5585 -24.4947 78.7517
CA 44.24 -34.696 64.225
CA 12.899 -2.87343 49.2123
CA 27.9423 -11.7972 52.3794
CA 21.1887 -16.89 39.2841
CA 22.7606 -8.88602 32.2892
CA 36.8129 -31.0679 79.7816
CA 19.5973 -34.6115 53.7863
CA 33.3113 -2.67299 39.278
CA 12.9675 -34.2636 36.0775
CA 24.8774 2.28747 52.2363
CA 27.6679 0.0709534 62.4517
CA 22.9245 -2.56692 32.4392
CA 4.79887 -31.909 48.8949
CA 48.9799 -33.4244 63.8251
CA 38.9525 0.946753 36.8845
CA 32.2412 2.83699 37.2139
CA 22.6417 -25.5646 73.1592
CA 46.8137 -3.78158 49.6322
CA 2.07405 -23.902 49.154
CA 9.37203 -18.8521 14.0489
CA 38.5084 -17.3743 68.7212
CA 43.8971 -20.345 33.013
CA 38.0363 -29.3199 42.0058
CA 34.8402 -26.8103 80.7822
CA 34.0285 -33.6234 92.3605
CA 29.7858 -23.9726 77.9019
CA 31.7534 7.1229 54.0637
CA 25.4116 0.617143 38.8333
CA 28.7018 -32.603 39.406
CA 36.433 -19.3066 40.3433
CA 34.3054 -17.5271 61.9337
CA 26.4812 -22.9228 58.3787
CA 41.9833 -20.749 58.3057
CA 23.172 -25.9415 28.3106
CA 43.7231 -25.9032 68.937
CA 40.0312 -1.43564 38.9426
CA 53.6689 -17.848 58.9589
CA 24.3106 -13.2763 61.7672
CA 21.362 4.79777 50.3448
CA 14.2997 -34.1277 33.4616
CA 11.2255 -22.5301 48.2767
CA 29.8174 -14.0984 46.7917
CA 33.6784 -34.1018 51.9965
CA 5.94782 -11.333 4.7861
CA 13.1253 -11.1017 48.5331
CA 46.0618 -31.931 70.8007
CA 21.3631 -21.0141 37.4925
CA 25.0382 -1.93385 51.9431
CA 43.5149 -16.7773 32.6723
CA 5.30129 -14.4716 14.1407
CA 43.5682 -27.2381 43.7266
CA 16.8938 -6.24869 38.1191
CA 27.0293 -1.58957 36.2089
CA 23.5003 -21.2393 28.1138
CA 44.4831 -45.6036 72.243
CA 38.4152 -26.4285 54.7316
CA 40.422 -40.9091 56.8803
CA 25.2448 -29.2 67.8837
CA 31.9069 -6.88683 61.539
CA 40.15 -11.7776 66.2122
CA 43.2414 -44.7171 68.5761
CA 35.1371 -0.321545 37.1213
CA 20.4697 -8.95631 43.33
CA 18.8768 -3.16096 35.942
CA 31.5964 -28.9744 39.4361
CA 6.89336 -12.0726 17.0278
CA 41.3901 -18.7475 37.7644
CA 31.7749 -17.4819 58.2774
CA 0.946685 -31.1683 45.7938
CA 29.9216 -15.2577 61.3265
CA 18.4053 -20.0451 41.6011
CA 35.5163 -37.7534 41.374
CA 28.4435 -26.9426 77.4945
CA 46.7847 -15.3994 32.7282
CA 59.86 -18.2849 58.858
CA 35.0835 3.75877 38.9362
CA 9.4628 -18.3147 55.9706
CA 42.6988 -19.1032 79.0957
CA 53.0477 -19.6935 51.8945
CA 32.8699 -26.4826 80.0355
CA 36.6168 -33.9709 44.7418
CA 43.3907 -14.9561 34.7755
CA 0.720592 -10.2881 16.8893
CA 33.2205 2.9566 53.7825
CA 29.2346 -19.4512 33.7968
CA 38.8387 -4.35083 54.322
CA 60.4297 -23.2291 55.8504
CA 33.3473 -8.74484 44.0094
CA 38.0457 -21.5378 43.2301
CA 26.4809 -12.873 34.5108
CA -1.67852 -22.5644 47.9031
CA 10.5771 -18.2863 17.5312
CA 44.8356 -18.9327 29.5582
CA 38.9464 -37.2666 39.4258
CA 52.103 -25.7111 54.7903
CA 60.4704 -25.3084 56.2604
CA 20.9477 -35.3051 57.109
CA 9.03921 -28.246 50.312
CA 45.9445 -37.6136 63.997
CA 25.5296 -35.0298 59.6344
CA 44.886 -41.8253 73.2766
CA 33.2126 -31.6995 34.6651
CA 32.3354 -33.1331 56.5384
CA 46.8258 -32.1568 33.863
CA 43.6243 -15.7686 60.3141
CA 31.1381 -41.4956 49.7313
CA 36.8063 -29.3164 53.1665
CA 39.5074 -22.858 66.3365
CA 28.5931 1.63779 63.695
CA 26.0361 -39.1919 43.0394
CA 38.1211 -25.4163 44.7324
CA 38.9646 -7.48605 49.2223
CA 31.7414 2.16322 41.1596
CA 44.0217 -15.6495 30.2238
CA 41.7525 -35.0219 70.1334
CA 46.9512 -8.73213 56.162
CA 44.2776 -35.7116 43.0362
CA 34.7893 -15.4889 48.3614
CA 22.696 -22.881 59.2702
CA 13.3874 -13.3276 3.12477
CA 36.0665 -11.2013 51.0463
CA 28.5972 2.38334 55.9418
CA 10.8541 -25.9775 48.7839
CA 16.313 -4.45654 54.3377
CA 41.7877 -29.2779 51.8061
CA 22.226 -30.3622 37.4235
CA 33.1432 -18.3078 40.9157
CA 18.3838 -8.88473 60.2995
CA 21.5416 -18.5621 33.6218
CA 25.6378 -25.7185 46.5827
CA 42.7289 -34.2777 37.2767
CA 42.4469 -16.0795 80.9398
CA 35.8156 -44.0162 48.9906
CA 5.70715 -25.4197 49.9219
CA 23.9124 -4.69925 45.4008
CA 15.5131 -4.55449 46.5946
CA 28.3079 -9.80613 60.282
CA 44.036 -7.70954 44.0333
CA 30.7317 -35.3802 45.2318
CA 14.6822 -21.6652 44.1228
CA 44.4342 -9.48186 62.418
CA 6.17961 -13.7201 10.947
CA 34.7096 -40.3342 62.2422
CA 40.0481 -23.5559 45.4762
CA 18.8733 -6.68075 60.3538
CA 52.872 -17.0944 51.6913
CA 54.8976 -18.5686 56.0764
CA 20.3141 -6.68481 37.3912
CA 29.382 -17.5875 72.4984
CA 41.2867 -50.0604 74.8625
CA 34.984 -18.4269 31.036
CA 39.1973 -13.7303 75.5899
CA 16.1429 -22.2962 47.0344
CA 47.0813 -33.1429 63.5912
CA 22.6389 -13.8749 36.5612
CA 20.5826 -19.9959 36.0793
CA 23.3513 -32.9813 55.6902
CA 38.9799 -22.1691 76.6142
CA 15.5156 -11.6366 39.9139
CA 42.6881 -45.4495 65.0698
CA 50.278 -20.8187 30.4314
CA 18.3279 -16.0616 24.4811
CA 40.3577 -9.71344 57.3592
CA 38.9492 -45.116 64.5213
CA 41.1422 -32.6968 69.8431
CA 31.9419 -33.7161 86.7897
CA 46.4009 -36.5412 38.1422
CA 22.425 -15.3086 62.5073
CA 47.0401 -41.2165 59.845
CA 48.2057 -12.2178 51.2955
CA 39.3645 -21.3091 74.0883
CA 20.8188 -19.2078 68.4317
CA 37.9125 -28.7947 59.7309
CA 37.0942 -39.2565 59.8002
CA 41.0305 -19.8689 52.7138
CA 36.4465 -16.2097 76.4923
CA 36.0558 -22.5562 61.834
CA 7.81493 -6.2947 2.42161
CA 39.2517 -34.0105 43.4329
CA 57.3906 -20.2096 54.3176
CA 33.3387 -5.59017 58.3119
CA 33.7141 -30.2892 74.1228
CA 18.6768 -21.6138 55.0236
CA 33.3092 -22.3439 52.5751
CA 24.1482 -30.0734 36.5254
CA 25.7472 -13.9103 63.9623
CA 40.8795 -24.6821 34.1572
CA 45.3457 -28.5778 52.6456
CA 28.9705 -23.9472 33.0977
CA 1.31968 -11.7601 17.8683
CA 12.7689 -9.72236 52.442
CA 38.8089 -24.0409 63.2242
CA 9.70392 -29.1715 36.5909
CA 14.3971 -18.346 51.5274
CA 38.3117 -11.6686 67.5966
CA 30.5619 -14.5576 51.2564
CA 31.8746 -0.9974 39.8538
CA 44.9702 -10.1072 57.0219
CA 20.4777 -16.5645 24.6037
CA 18.4226 -14.3345 59.7224
CA 34.9796 -29.477 82.8296
CA 40.1883 -30.64 56.5358
CA 24.2067 -20.802 66.2013
CA 35.39 -29.2481 88.185
CA 29.9024 5.81021 55.794
CA 6.00759 -28.8264 48.4604
CA 51.1043 -40.4477 58.6149
CA 45.4094 -32.4293 59.8818
CA 29.6783 -0.219623 60.0122
CA 42.063 -35.1054 65.142
CA 17.1255 -15.8662 14.8476
CA 35.216 -9.35646 54.8043
CA 32.2733 4.61477 39.9127
CA 49.6432 -9.6044 55.6763
CA 9.95636 -8.00618 1.01564
CA 10.6401 -18.7185 57.9107
CA 46.1173 -46.0099 77.2044
CA 21.8423 -8.70285 59.7227
CA 22.8634 -20.5417 33.1865
CA 26.2088 -19.3702 59.437
CA 59.8473 -20.5431 52.1274
CA 44.6601 -17.9397 42.5142
CA 26.4393 -24.7109 50.8428
CA 59.3246 -16.4919 51.3557
CA 39.2814 -19.194 32.5168
CA 60.6531 -12.4487 42.6392
CA 29.223 -24.5755 66.4452
CA 22.1636 -36.2307 58.1132
CA 43.6771 -29.626 71.9801
CA 45.9745 -46.4942 68.4615
CA 51.5043 -17.2521 47.9458
CA 34.8003 -29.1181 84.8463
CA 28.7877 -28.8853 76.1458
CA 60.8018 -14.5766 47.7837
CA 20.2568 -18.0553 52.9852
CA 32.382 3.58189 58.0744
CA 31.3935 -38.2049 59.0392
CA 33.2598 -27.8154 82.1603
CA 43.9202 -49.1899 68.2862
CA 18.5921 -25.4587 57.6936
CA 31.9121 -26.0783 52.5203
CA 26.4764 -22.1444 54.7534
CA 8.74097 -11.0646 5.22843
CA 11.1189 -10.8395 55.2333
CA 42.659 -11.7902 57.8975
CA 24.9668 -16.4644 51.9942
CA 43.1303 -26.0904 49.1367
CA 33.4537 -15.6678 31.4821
CA 34.7025 -32.5455 88.8399
CA 15.0834 -31.0332 43.6591
CA 30.3868 -24.6102 47.6043
CA 45.5951 -33.8487 34.6166
CA 48.8863 -1.1587 52.4679
CA 40.8997 -27.0219 39.6521
CA 50.3246 -17.4345 49.4207
CA 33.2926 -28.8634 69.8758
CA 47.4785 -8.16431 79.7856
CA 42.9172 -23.9668 52.7465
CA 38.9012 -18.3362 50.5963
CA 52.1515 -26.534 60.913
CA 39.0195 -20.2562 63.0427
CA 10.3505 -13.199 53.3934
CA 26.7643 -17.1382 35.0922
CA 6.74957 -7.47144 5.62169
CA 46.0838 -49.186 77.9263
CA 25.2866 -28.211 32.5252
CA 44.0437 -36.3029 73.481
CA 40.1957 -37.1094 69.3475
CA 46.4727 -25.4078 58.3858
CA 35.6887 -9.05867 48.2475
CA 26.0368 -24.0711 62.2072
CA 18.1629 -12.4022 43.0042
CA 35.505 -19.2751 53.4544
CA 17.1074 -30.0962 43.5761
CA 19.7362 -6.86534 57.0856
CA 42.1004 -2.30955 54.4918
CA 44.6626 -12.515 55.5652
CA 51.8058 -25.7133 68.0696
CA 22.1016 -28.4689 75.7626
CA 34.5456 -7.57317 42.2268
CA 47.457 -14.9258 46.7354
CA 23.398 -5.48253 51.8427
CA 21.3571 -7.26772 50.7981
CA 30.26 -5.8721 63.0336
CA 22.1749 -32.4061 40.4911
CA 15.1659 -26.8507 49.523
CA 29.0602 -22.6512 64.7573
CA 21.1838 -14.9951 52.431
CA 43.6169 -12.4594 46.0241
CA 42.0837 -35.7496 55.9031
CA 49.2492 -20.5002 49.5168
CA 26.1095 -22.1599 34.7144
CA 39.4552 -19.9685 51.2689
CA 47.3259 -31.035 38.0961
CA 24.2431 -29.8581 63.7261
CA 24.9322 -35.1162 43.9995
CA 39.594 -10.4822 45.9091
CA 58.3489 -19.8556 58.6878
CA 48.4114 -26.2814 56.4279
CA 17.5904 -26.4437 48.4306
CA 45.0409 -45.6935 62.6903
CA 48.9581 -49.6854 71.2273
CA 23.7286 -24.2943 49.3635
CA 25.8466 -29.4477 40.2896
CA 34.0448 -32.2693 47.9673
CA 49.2396 -15.9557 41.4547
CA 43.6742 -13.8732 64.8815
CA 41.3862 -22.7177 40.6697
CA 15.2258 -4.01098 37.617
CA 32.0656 -22.4014 69.0208
CA 10.8696 -9.20172 5.55798
CA 56.1706 -18.5847 49.19
CA 51.3613 -28.7898 58.5985
CA 29.2151 2.81605 49.9923
CA 12.4308 -14.681 54.5353
CA 29.7847 -43.9039 53.8483
CA 25.7326 -43.1123 57.5478
CA 4.82379 -9.32281 12.591
CA 49.0328 -29.6436 56.906
CA 39.4334 -7.61079 62.9552
CA 26.2098 -24.9291 73.4807
CA 51.4328 -13.0707 51.296
CA 30.8929 4.74622 38.6446
CA 25.0547 -4.71801 41.3314
CA 27.1957 -3.37225 48.8953
CA 21.9278 -3.75646 57.4842
CA 60.6893 -8.81796 37.8768
CA 40.9718 -4.16155 47.8946
CA 33.6395 -20.3421 32.4957
CA 5.90608 -7.82348 18.5798
CA 38.1037 -15.4764 71.3085
CA 16.6229 -25.2171 43.2199
CA 31.6482 -21.927 59.5822
CA 45.7849 -22.1661 62.0624
CA 21.169 -5.31964 51.1687
CA 1.69764 -24.1045 52.8111
CA 28.7224 -32.1459 36.9771
CA 20.8587 3.14797 51.03
CA 51.9722 -28.7925 65.3138
CA 17.6624 -34.7452 59.489
CA 33.1702 -29.5232 38.6333
CA 38.2402 -22.8925 59.3054
CA 35.9285 2.07043 40.1828
CA 33.2177 -34.241 54.1022
CA 34.1379 -42.563 58.8352
CA 46.2055 -20.6263 24.8597
CA 31.2186 -25.6069 61.4476
CA 29.1034 -24.5687 50.6755
CA 45.8563 -20.3617 21.7333
CA 20.638 0.499174 50.847
CA 44.4794 -46.9057 76.6739
CA 10.9513 -16.8014 57.5266
CA 6.56212 -14.6706 16.5673
CA 17.4071 -2.72833 48.9008
CA 37.8184 -32.9622 56.3182
CA 27.3551 -9.43425 29.2102
CA 44.4609 -28.38 70.8148
CA 46.3268 -35.91 42.6276
CA 21.8712 -26.2198 50.2882
CA 35.9151 -7.67946 44.2347
CA 35.56 -27.7103 38.7393
CA 2.56633 -27.772 46.7028
CA 15.5981 -28.9119 41.0648
CA 30.9253 -4.16952 64.9257
CA 45.5903 -49.4155 74.5942
CA 23.4411 -16.0384 64.0694
CA 23.1787 -8.62664 42.0679
CA 41.2386 -36.731 40.4273
CA 37.1995 -38.2114 52.2463
CA 24.9403 -38.2773 55.3349
CA 19.4265 -20.242 24.7409
CA 45.5882 -26.2684 47.8245
CA 17.2829 -24.061 52.2978
CA 40.2391 -47.4349 65.9814
CA 4.88079 -30.3742 41.8706
CA 39.2463 -4.72413 40.3779
CA 25.0641 -17.656 49.7118
CA 42.4399 -27.9536 69.0789
CA 34.0723 -32.2407 37.4761
CA 25.3564 -38.2597 57.8554
CA 26.3699 -22.644 47.8783
CA 37.2574 -22.5673 53.2309
CA 33.8 3.89954 62.2963
CA 44.3627 -3.83769 53.7303
CA 38.356 -21.8616 41.3769
CA 44.852 -14.0087 83.096
CA 42.4507 -17.5997 30.1719
CA 23.0096 -27.1847 53.5992
CA 43.767 -32.7516 33.5992
CA 37.9709 -39.75 64.0982
CA 22.5913 -30.4191 44.9963
CA 50.9746 -36.6863 36.9259
CA 25.11 -43.359 63.1839
CA 28.1248 -0.037895 37.5144
CA 15.9075 -16.0299 19.6362
CA 21.76 -30.2233 58.4554
CA 39.1879 -44.3863 61.0385
CA 46.1591 -34.3809 38.9443
CA 38.937 -10.3032 59.1422
CA 13.358 -27.6551 39.7978
CA 16.3338 -34.9008 61.2304
CA 41.617 -4.17783 65.3317
CA 34.6448 -11.7699 60.2984
CA 47.267 -9.01152 65.5604
CA 28.1783 -41.3548 52.5306
CA 46.8959 -19.3206 31.6106
CA 4.99106 -28.1344 40.5504
CA 12.4776 -19.472 54.4029
CA 27.4928 -24.2561 68.4308
CA 45.067 -4.54661 49.1115
CA 15.7211 -2.57164 40.3006
CA 19.7674 -40.8915 58.7106
CA 56.9142 -17.3167 50.7559
CA 19.434 -30.1337 35.4834
CA 16.0608 -8.52979 42.1089
CA 15.065 -30.9846 34.6874
CA 29.9786 -10.1731 42.4647
CA 55.1739 -26.5093 61.8597
CA 32.8096 -5.96128 53.0988
CA 48.5553 -12.3163 59.4769
CA 18.7486 -3.60194 59.3245
CA 45.886 -38.0471 78.4331
CA 18.9608 -4.50611 32.264
CA 58.1216 -10.3288 41.7867
CA 33.0703 -30.882 42.932
CA 11.1519 -14.6482 17.946
CA 43.5495 -29.6158 56.7921
CA 38.6261 -30.3499 69.4583
CA 37.4087 -23.8813 48.3347
CA 4.16899 -26.976 53.5526
CA 16.5929 -8.23575 57.9941
CA 49.8951 -24.7797 64.0323
CA 19.2182 -16.8611 51.4676
CA 45.8222 -11.6296 49.0816
CA 30.317 -18.8582 60.3095
CA 34.1315 -19.4558 71.3573
CA 16.1587 -13.8282 38.6411
CA 40.6854 -7.49255 44.2035
CA 7.81072 -36.734 47.7332
CA 37.4449 -4.08391 37.0934
CA 39.8238 -36.2271 73.0021
CA 37.3962 -19.2365 76.179
CA 9.46988 -10.188 1.64703
CA 52.2908 -5.85262 55.1611
CA 34.6148 -30.3838 45.9631
CA 34.1202 -25.3086 45.7744
CA 0.507111 -30.9309 54.9227
CA 39.1499 -7.81663 68.7177
CA 37.952 -11.7649 57.0891
CA 18.9936 -9.66869 32.115
CA 24.9785 -39.9789 59.6906
CA 17.6015 -8.66785 56.4043
CA 28.7585 -21.0316 57.232
CA 39.9747 -23.0542 35.1975
CA 40.6054 -15.173 48.9703
CA 23.9479 -14.7479 60.3211
CA 5.29864 -7.5443 8.90823
CA 37.9471 -17.5439 41.592
CA 22.9791 -12.6719 23.1814
CA 33.1559 -14.9884 50.1207
CA 38.3803 -9.24861 42.9327
CA 31.0383 2.15215 51.7872
CA 39.8482 -45.0878 78.0984
CA 8.54255 -9.84963 16.2915
CA 34.6808 -23.8451 62.9351
