489

CA -9.34679 4.38685 65.5465
CA -3.61235 -29.8845 46.7717
CA -24.0216 -12.6001 60.1246
CA -12.5711 -5.46796 31.5257
CA -29.6421 -6.23939 60.2822
CA 12.2275 17.879 61.8698
CA -10.3848 -4.88404 46.1488
CA -25.3841 -2.32659 48.3063
CA -4.87465 6.25722 61.8705
CA 2.20874 13.0498 47.1069
CA -3.34587 19.9618 70.4836
CA -8.77168 14.7173 47.1423
CA -18.5103 1.82229 32.1502
CA -13.8735 9.35094 67.76
CA -13.9335 7.42638 53.4308
CA 0.00197836 -39.2199 40.117
CA 10.4354 18.3024 60.7729
CA -5.9221 11.9351 39.9879
CA -23.9621 -8.12244 55.5344
CA -22.4014 -4.55658 53.4238
CA -16.1136 -13.8031 58.9261
CA -6.09776 -14.1586 26.2736
CA -4.02432 -7.23926 16.6831
CA -6.84539 6.37727 71.6538
CA 6.1637 11.62 47.2491
CA -2.29334 19.0763 22.8347
CA -8.92275 -24.7518 10.1266
CA -17.7859 -6.9444 56.4315
CA -5.56375 -1.23671 16.6121
CA -14.4397 -13.4278 20.9668
CA 4.55247 17.4575 46.4197
CA -24.4811 -14.6277 59.0719
CA -13.598 -1.38292 31.3721
CA -22.1126 -4.2732 58.9354
CA -5.79779 -0.255996 37.9757
CA -16.762 2.96916 69.047
CA -10.9643 12.8435 45.0088
CA 0.201622 -28.7913 59.5702
CA -1.47935 -22.0832 42.445
CA -15.6553 3.38465 34.8093
CA -19.2424 10.0455 42.2662
CA -18.0041 6.0807 46.8379
CA 23.312 -36.1298 45.5567
CA 7.35877 19.6746 45.6126
CA -13.3656 -8.1877 60.1441
CA 3.68539 18.2124 43.3695
CA -21.1182 -3.04476 31.3487
CA -28.076 -14.2029 60.94
CA -16.158 -11.4372 67.5607
CA -17.1777 -24.2638 9.76563
CA -18.907 -12.5046 69.1055
CA -6.81764 -9.26095 36.1785
CA 13.279 19.6785 52.3397
CA -11.3663 -10.609 51.5909
CA 35.2166 22.3333 54.017
CA -8.79995 9.16241 39.1044
CA -20.0766 13.3647 55.8845
CA -9.72597 -29.9456 58.5271
CA -8.12299 -21.2212 48.1488
CA 17.8695 -17.2819 72.5132
CA -16.0663 -13.2081 55.0748
CA 3.35131 17.4549 51.3714
CA -22.2441 14.2722 43.886
CA -24.2989 -6.33118 54.2054
CA -13.7785 6.42049 47.4807
CA -14.5325 -16.3655 60.1469
CA -4.22295 -25.67 59.4828
CA -1.61507 -14.815 17.0813
CA -10.3552 -10.3916 48.902
CA -22.8826 0.487625 49.2243
CA -13.9905 6.71993 43.7499
CA -9.30451 -8.51004 36.6164
CA 12.2969 22.3159 49.4688
CA -16.0341 -26.1559 13.4114
CA -18.4732 -23.8193 19.4887
CA 6.23865 23.9312 49.8488
CA -13.138 -8.52237 54.2226
CA -10.9982 10.9728 70.8791
CA 18.6896 -27.2769 41.1685
CA -22.9324 -33.6784 18.6773
CA -22.1059 -8.95278 55.54
CA -18.0397 -6.61006 33.3284
CA -2.59659 -25.8011 56.2082
CA 14.1956 -17.7818 63.2194
CA 3.69068 -6.40833 42.9185
CA 0.244721 -37.2763 38.4647
CA 8.37849 -23.8493 40.8435
CA -10.6137 -18.1769 16.5184
CA 22.1894 -22.1272 60.6814
CA -17.3977 -25.1231 6.97884
CA 15.1126 -30.9262 32.6027
CA -17.6489 -2.8057 68.4678
CA -15.8042 7.44104 67.4215
CA -0.659104 -22.5491 48.4439
CA -4.33588 -29.963 43.2114
CA -21.537 -13.3081 64.2669
CA 7.88548 20.9207 52.9759
CA -3.61428 2.80585 51.4823
CA -19.1665 -4.31166 55.4381
CA -4.47521 -25.2518 55.8856
CA -6.90492 -10.7155 33.9813
CA -15.4695 15.389 54.7543
CA -20.7252 -34.8067 23.7879
CA -1.74232 -26.662 44.7121
CA -13.5515 -0.941088 66.6053
CA -11.053 -28.6864 51.0947
CA -15.4154 7.69977 33.3687
CA -9.52982 1.60216 40.13
CA -0.278407 -40.4812 41.5783
CA -14.2466 -7.99876 47.8938
CA -11.5422 -25.9625 48.0144
CA -20.485 0.541889 29.8329
CA -24.6583 -6.40561 60.5214
CA 20.5147 14.7171 49.1788
CA -20.1359 -25.8846 46.4985
CA -12.7474 -4.80485 16.8173
CA 12.9145 -28.1182 33.2121
CA -19.9255 -0.391627 57.2372
CA 14.8814 -33.4058 46.1763
CA 14.3289 16.9831 52.6839
CA -17.7712 -20.3847 18.7817
CA -13.1427 -7.3772 51.7617
CA -10.1952 15.6608 68.2282
CA -12.3266 10.4429 50.5058
CA 15.3241 -31.4745 51.5055
CA -3.82258 -42.1988 40.9597
CA -12.0093 -2.69615 63.1607
CA -9.42471 -6.70632 39.0467
CA 10.5019 9.36893 47.2338
CA -10.6984 -7.48891 19.1663
CA -14.2856 -8.26333 36.4773
CA -14.9028 5.17123 73.4256
CA 32.4763 -25.5222 40.1169
CA -0.42158 -21.4623 44.5049
CA 20.282 17.4462 49.2151
CA -12.2586 -9.38813 55.7654
CA -1.18806 -26.1214 73.0164
CA -1.35567 6.73637 35.3243
CA 17.1571 -30.7429 33.6191
CA -8.02003 7.20158 72.9335
CA 3.4495 19.0035 30.0152
CA -17.0672 -9.06148 50.1216
CA -29.6569 -16.0821 64.4695
CA 6.77915 18.1116 62.7438
CA -10.0301 -13.5491 17.7793
CA -12.6043 7.70879 71.1632
CA -6.03061 -12.7027 14.4195
CA 23.0482 -16.349 61.5838
CA -14.4309 5.38441 66.8188
CA -4.81336 -22.6959 45.4305
CA -24.6734 -5.76686 56.1225
CA 1.38036 21.7795 28.2592
CA 16.5167 13.108 53.28
CA -20.392 -9.56333 56.729
CA -19.1956 -7.23046 67.1357
CA -18.2928 -12.7759 46.4917
CA -25.2509 0.731924 54.4906
CA -8.65866 -11.5567 23.6108
CA -18.6286 3.76333 68.6769
CA -5.95683 -31.6532 46.0198
CA 32.8774 -25.9204 44.1018
CA -11.0481 -1.5406 64.7815
CA 20.6705 -24.7294 34.3004
CA -22.7867 1.47968 51.8689
CA -2.37035 -25.1553 42.9049
CA -17.0897 9.82602 70.6762
CA 3.30654 -14.343 33.1258
CA -17.2201 3.97358 51.6866
CA -23.2325 -20.9729 16.864
CA 16.7199 19.7333 46.928
CA 1.01089 -28.9224 38.3161
CA -19.9022 9.85279 47.5962
CA -15.0685 14.4756 52.325
CA -23.2002 -5.3838 30.571
CA 7.91089 16.4967 52.6077
CA -4.58176 -25.2415 49.5482
CA -7.09116 -22.4432 58.2852
CA -10.6526 -8.06808 57.0441
CA -10.5476 -32.3258 45.6476
CA -22.5241 1.12925 55.1584
CA -20.362 -22.515 17.0094
CA 17.0577 19.6122 49.5981
CA -10.159 -6.95079 50.6951
CA -21.9867 -24.9472 21.05
CA -23.1868 -26.0797 22.0427
CA -5.67492 -1.9857 37.114
CA -1.02949 17.3868 44.6477
CA -27.4209 -5.81435 62.5848
CA 1.3919 16.1946 31.0642
CA -7.18477 -29.0784 39.2312
CA -23.1096 -17.15 67.2375
CA -12.0916 -9.21795 27.9721
CA -12.6662 -6.15268 48.3547
CA -23.2278 -24.4266 24.6165
CA 1.10417 7.78329 56.6406
CA 1.99354 -5.56918 47.4461
CA 11.4567 -25.5465 38.802
CA -10.456 9.40225 46.3134
CA -1.50012 16.6161 20.8178
CA -5.09121 -33.3834 47.2868
CA -3.29453 9.01841 49.7261
CA 0.0878874 -35.4999 40.204
CA -18.7697 -37.3735 21.0737
CA -22.4127 -7.60235 57.5428
CA -24.797 -13.2582 66.3479
CA 3.93183 -1.81047 40.2498
CA -6.91281 -12.4302 44.8269
CA -17.4872 -19.9278 14.3298
CA -10.5651 -11.2137 20.1556
CA 13.7224 -16.0848 63.7901
CA -13.7634 -6.62915 54.8572
CA -9.40512 13.1325 42.6632
CA -12.8321 11.7876 75.6606
CA -2.51548 -16.8732 16.1656
CA 3.11399 -34.047 41.5789
CA -14.9112 11.9488 42.981
CA -9.72453 15.5893 70.7653
CA 5.23655 -9.38498 27.3152
CA -4.53574 -12.5519 28.5868
CA -1.26981 -31.9739 44.1003
CA -16.2103 -24.2937 21.4887
CA -5.43659 14.3833 41.1416
CA -14.163 -24.674 13.2667
CA -30.2822 -2.902 59.0133
CA -17.1444 2.00373 48.4386
CA 5.26409 -11.005 37.6731
CA -12.9238 -3.61964 70.4182
CA 0.662674 -28.7132 49.8935
CA -9.1173 12.6015 70.6549
CA -4.16973 -27.5521 42.8386
CA -14.688 -6.66517 69.618
CA -27.1471 -11.7045 56.4535
CA -12.7867 -23.9008 42.557
CA 1.9609 -23.369 39.0239
CA -11.6694 -12.1932 21.3886
CA -19.1 -8.17028 57.7039
CA 0.559982 -31.5349 47.9798
CA -7.58986 -11.0391 47.9513
CA 2.13561 18.4641 28.4409
CA -14.3974 -8.98324 51.9752
CA 8.61976 25.726 47.4203
CA -8.44324 11.889 44.3579
CA -8.35935 -8.98564 50.6073
CA -14.77 8.32371 44.5563
CA -2.23639 -10.0188 49.5658
CA -14.5771 5.55293 50.9312
CA -14.7473 11.6075 41.0613
CA 3.36565 -10.6031 41.893
CA -10.1061 -2.66984 33.0165
CA -3.32675 -26.4624 41.3152
CA -14.7388 -21.5706 7.44643
CA -14.5024 -25.3953 11.2035
CA -5.173 -34.9067 45.8696
CA 0.378028 -12.8394 16.5219
CA 4.26846 11.7435 74.6756
CA -15.059 -2.43525 62.903
CA -8.66259 12.2276 72.8037
CA -13.8361 -23.6042 8.55918
CA -20.0988 9.51552 50.9228
CA -16.9286 -15.4742 52.1024
CA -14.4394 0.567853 19.8486
CA -11.9293 -13.5329 24.3249
CA 10.3895 -30.5024 53.4039
CA 1.63373 -40.0844 42.3583
CA 10.3377 -32.7053 47.7134
CA 18.9763 -32.0683 53.7955
CA -18.8292 -25.3639 45.0454
CA -21.7157 -8.76288 60.6395
CA -11.3424 -15.3569 47.8412
CA 9.50283 -29.7989 45.4387
CA -18.3999 3.29766 70.6807
CA -26.4596 -12.375 60.9966
CA -2.60205 -22.6063 49.9267
CA -4.81178 3.91991 55.5362
CA -1.66499 -43.2986 38.5844
CA -21.0018 18.3284 50.1902
CA -15.9828 -9.23083 47.802
CA -15.9607 -0.952737 70.0793
CA -18.2125 -18.7519 65.0012
CA -20.5702 -16.874 60.7355
CA 16.9961 -29.7606 47.425
CA 16.0108 -24.7945 51.6068
CA -20.73 -8.3548 27.7688
CA -10.0545 4.2421 36.4667
CA -18.9765 -25.035 17.1154
CA 10.909 19.7282 69.0955
CA -8.03451 -17.6023 22.6923
CA -18.3878 7.31951 70.3913
CA 9.07874 17.3884 61.8248
CA -2.10367 7.93486 47.3013
CA 17.4887 -30.3791 38.7586
CA -2.28617 7.34497 19.3591
CA -9.68906 -25.6985 28.3409
CA 13.2008 -27.1279 36.3996
CA -24.1846 -10.0828 67.5014
CA 21.8086 -31.5518 46.3155
CA 9.65347 19.5941 65.1766
CA -28.8729 -12.8244 56.4037
CA 3.87388 -34.9353 45.5963
CA 21.8421 -32.8029 40.4791
CA -26.5831 -4.16859 59.9462
CA 15.0645 -18.6653 38.6364
CA -24.6267 -26.1585 23.3478
CA 4.50254 23.6194 51.115
CA 13.5779 -29.8196 33.2009
CA -6.23374 11.8207 49.1838
CA 12.9016 -15.2395 69.6117
CA -6.56168 -19.1143 20.6673
CA -15.4087 7.63817 71.5315
CA 0.131503 -24.7625 49.1107
CA -3.70909 -17.2544 38.5355
CA -13.7054 -0.85443 29.3884
CA -26.061 -4.01379 56.0292
CA 17.5787 -24.233 42.3046
CA 0.361205 -25.6869 68.6747
CA 18.4721 20.1382 48.0473
CA 19.595 -22.5625 35.7269
CA -10.308 -13.3686 21.2417
CA -9.82499 -10.3657 37.0206
CA 0.686037 10.5669 53.5915
CA -15.7483 -10.2643 55.8014
CA -4.3045 -32.2248 34.9939
CA 13.2889 -29.5882 43.7414
CA -4.57328 -29.8809 29.1053
CA -5.983 11.9247 51.0503
CA -22.7435 -2.29421 51.6048
CA -10.7274 14.5421 73.5083
CA -6.46396 -31.4026 38.5493
CA -12.5995 -26.0392 12.6104
CA -23.9401 -16.4705 68.8717
CA -2.81895 -24.7272 37.9724
CA 20.6642 -24.3447 31.3946
CA 12.6519 -21.0419 58.4071
CA -16.0796 -7.33593 52.3514
CA -19.186 -14.6899 65.3681
CA -7.81452 -14.2733 33.4193
CA -14.1898 7.64462 68.953
CA -1.34069 -28.0564 56.925
CA -19.8236 1.89312 37.274
CA -0.0246894 -12.1777 13.1114
CA 14.0467 -18.6496 67.0671
CA -11.011 -9.28476 34.0138
CA -14.3722 -4.90264 54.9189
CA -25.9188 -1.29611 57.412
CA 2.62462 -42.0926 37.4511
CA 0.898544 -21.111 68.1748
CA 20.1101 -29.3998 44.6929
CA 16.2296 17.4298 49.5785
CA -24.1521 -2.53653 59.5279
CA -9.33744 16.1993 49.7117
CA 0.589417 -13.873 13.9961
CA -15.4566 -14.6712 17.4429
CA 17.0274 -32.2552 46.5639
CA -15.3875 8.87997 50.4755
CA 7.27641 15.9445 61.6916
CA -22.4943 -15.3288 61.0249
CA -2.70079 15.7474 30.8928
CA -21.5122 -6.70605 65.0928
CA -3.46329 -31.4235 31.848
CA -18.8643 4.10346 66.8294
CA -5.98829 -10.3291 61.5368
CA -22.2612 -12.78 65.8441
CA -10.865 -8.83473 16.106
CA -25.3469 -34.4003 19.9061
CA 3.11736 -21.7972 46.9909
CA 31.7523 -29.9125 42.7439
CA -23.4342 -18.1295 62.8088
CA -12.9743 -9.60859 47.9935
CA -0.835866 -7.23147 37.2749
CA -10.8109 10.1774 73.6544
CA -0.758762 11.7745 57.4218
CA -5.56685 17.1021 70.9752
CA 10.7165 -30.3331 55.5439
CA -16.6851 -2.00874 34.6493
CA -16.4332 -6.82071 12.3557
CA 2.8523 15.3975 43.9451
CA 4.70742 -23.4919 38.0607
CA -20.6652 -16.9459 53.0314
CA 7.0987 -23.6114 48.3709
CA -16.249 0.463612 35.7132
CA -19.5248 -12.8987 56.6855
CA 13.4281 -32.2047 49.6314
CA -7.51301 9.18954 69.2934
CA -7.23354 -25.6207 54.3576
CA -28.8533 3.63396 56.3285
CA -2.05529 -25.891 50.8129
CA -7.9051 -1.24817 17.5022
CA -19.0335 14.7666 54.9114
CA -14.9194 0.187228 33.9781
CA -0.572005 17.4158 46.6487
CA -14.4843 -24.8372 43.5564
CA -4.35836 8.18623 66.2421
CA -0.0252846 -14.1866 37.2104
CA 5.82603 -22.2131 42.8692
CA -6.44215 11.3949 69.5593
CA -11.3752 16.9439 69.3098
CA -15.4549 13.9903 70.5865
CA 3.14353 20.5587 52.6086
CA 4.01716 -19.4145 47.498
CA -13.6018 -5.421 61.9745
CA -16.6384 -15.7331 64.3129
CA -14.5312 -25.7841 20.4474
CA -15.1252 -2.30647 29.0082
CA 3.92951 22.0511 47.754
CA -10.0924 -7.76725 62.6811
CA -8.67897 -7.32736 17.89
CA -6.87398 -28.0417 57.1757
CA 10.3802 17.8136 63.45
CA 0.429442 15.0267 50.0058
CA 4.94646 20.7805 43.7469
CA -16.7805 6.01659 51.8865
CA -9.97564 -3.5171 20.6759
CA -13.1422 -10.194 37.2268
CA -11.5941 10.786 48.6557
CA -22.6718 -20.0215 27.5595
CA -6.53784 -34.4521 42.2183
CA 30.7597 -25.5891 42.4514
CA -8.46106 6.90789 70.4725
CA -19.5625 -28.5996 19.419
CA -2.74814 -24.6636 40.7011
CA -16.6387 9.22392 64.9357
CA 5.14538 -4.36226 39.4621
CA 17.1879 -20.9345 38.5963
CA -8.29828 -26.981 29.7802
CA -8.156 -34.1156 45.9982
CA -20.9221 -21.5861 26.2507
CA -13.8303 -14.3716 13.6887
CA 14.3791 13.1216 53.5222
CA 4.70747 -14.5729 36.7851
CA -20.9702 -0.250963 55.3982
CA -12.3547 15.6481 72.2311
CA -23.6552 -13.5823 62.6214
CA -19.8147 -27.9479 41.8505
CA -3.40285 -7.46079 36.9119
CA -9.1149 0.0481517 62.4859
CA 5.38065 16.2643 56.8574
CA -0.0486335 -22.9311 40.2616
CA -5.30979 8.29072 41.3196
CA -25.0371 -3.66584 57.6615
CA -12.0967 -22.1412 25.6074
CA -13.2443 -14.6316 20.1638
CA -17.6057 -16.4413 21.1848
CA -8.65361 5.48179 69.3081
CA -12.0203 12.9177 70.633
CA 26.0612 13.8917 44.6592
CA -20.4646 -16.0636 62.9562
CA -12.7916 5.32552 71.3433
CA -11.5692 -20.2739 22.1169
CA 6.91477 14.5149 77.6319
CA 1.25389 -41.4178 39.7177
CA -14.8933 -27.0986 7.97951
CA 1.12872 -25.2622 24.637
CA -11.7538 7.34303 36.8376
CA 6.72449 15.7681 45.3645
CA -17.2356 -11.151 60.0575
CA 4.49957 -10.0658 40.064
CA -17.9049 -0.690524 31.2822
CA -2.64116 -21.851 47.7225
CA -4.40116 11.4308 49.1358
CA -0.772074 -32.9478 48.6949
CA 6.81946 -14.1658 33.5988
CA -11.9223 2.81706 38.5259
CA -13.3146 -17.817 13.2803
CA 0.634231 -40.0251 36.1908
CA -14.0933 -12.6032 15.079
CA -9.82358 -10.8223 33.2963
CA -21.6383 -0.928921 50.254
CA -14.373 -30.7818 46.7395
CA 1.12674 18.2599 22.7266
CA -15.4141 3.85404 48.0757
CA -19.0931 7.13803 62.9651
CA -20.9965 -19.6298 23.6947
CA -29.3598 4.46874 60.5663
CA -25.7489 -24.6413 18.3928
CA -17.0248 -26.3872 47.6243
CA -19.487 -34.4215 20.0624
CA -21.0909 -13.1894 72.7895
CA -4.41789 10.2957 68.4741
CA 3.95027 -5.79667 37.8085
CA 1.01661 -26.5864 35.3641
CA -0.498002 10.9266 55.8014
CA -10.7391 5.33414 41.2885
CA -13.2191 -15.9405 12.7542
CA -11.9648 7.96082 44.793
CA -6.05223 -24.534 60.5231
CA -7.83721 -24.2518 52.0678
CA -6.10525 -1.75259 32.8746
CA -7.03821 -30.4658 50.4082
CA -8.41678 -4.54212 18.6751
