489

CA -9.34679 4.38685 65.5465
CA -15.8203 -16.0069 10.4026
CA 8.27832 -12.5173 38.2769
CA 11.559 -23.7706 38.7767
CA 9.96834 -28.0909 35.1975
CA -22.1069 19.6432 48.7243
CA -10.3848 -4.88404 46.1488
CA 1.32808 -27.3987 54.4164
CA -4.87465 6.25722 61.8705
CA -17.2836 5.46934 64.5651
CA -0.744593 -26.3908 26.5312
CA -8.77168 14.7173 47.1423
CA -19.6626 -0.637097 72.1153
CA -18.032 -7.10887 48.0239
CA -20.9567 -9.86587 58.9545
CA 0.00197836 -39.2199 40.117
CA -17.7376 -21.7857 5.78021
CA -10.5336 -27.8774 54.2745
CA -23.9621 -8.12244 55.5344
CA 18.7068 -32.7999 58.797
CA -16.1136 -13.8031 58.9261
CA 12.1667 14.0715 52.2564
CA -15.9573 -4.38756 59.2991
CA -14.7269 -25.2505 47.8731
CA -5.40659 -13.7646 39.2514
CA -18.8566 4.8351 50.2808
CA -14.1362 4.56537 42.4031
CA -17.0126 17.4514 72.7995
CA -1.26961 -10.1749 14.7271
CA -22.4117 -28.7831 48.891
CA 12.4758 -28.6099 53.8946
CA -24.4811 -14.6277 59.0719
CA -13.598 -1.38292 31.3721
CA -11.6683 -24.4223 26.8551
CA -5.58164 0.296544 42.661
CA 4.20527 15.4904 24.4286
CA -10.9643 12.8435 45.0088
CA 0.201622 -28.7913 59.5702
CA -7.26162 2.33437 56.659
CA -15.6553 3.38465 34.8093
CA -19.2424 10.0455 42.2662
CA -7.75656 -7.90791 37.3117
CA 23.312 -36.1298 45.5567
CA -16.6114 3.94322 45.9583
CA -23.0505 -17.2733 64.9341
CA -25.1073 -7.43165 57.4858
CA -6.11501 -26.9616 46.3488
CA -4.74147 8.32572 68.7405
CA 11.1083 -30.7859 45.2558
CA -4.66307 -21.8804 51.5074
CA 3.2666 18.1436 45.3202
CA 12.5783 -32.4502 42.5774
CA 13.279 19.6785 52.3397
CA -1.82204 -33.9582 41.7598
CA -15.6317 -18.8652 14.7572
CA 11.2288 -17.9715 69.4761
CA -2.10972 12.9901 74.8638
CA -9.72597 -29.9456 58.5271
CA -28.6099 -12.457 61.6898
CA -23.6837 -19.2229 58.9309
CA -12.4521 -10.0075 73.4425
CA 3.35131 17.4549 51.3714
CA -22.2441 14.2722 43.886
CA -14.6624 1.78858 36.5478
CA 7.68853 16.6639 59.9109
CA -13.4152 -3.54026 18.6198
CA -17.4832 -11.1491 62.4325
CA -1.61507 -14.815 17.0813
CA -10.3552 -10.3916 48.902
CA -15.9396 -23.9373 12.2923
CA -11.8166 17.9408 49.4571
CA -9.30451 -8.51004 36.6164
CA -9.56713 -9.89206 39.2802
CA -0.376779 -42.7409 43.3365
CA -18.4732 -23.8193 19.4887
CA -17.4049 12.7281 72.8169
CA -13.138 -8.52237 54.2226
CA -10.9982 10.9728 70.8791
CA -14.0065 10.8379 62.2886
CA 19.3454 -30.7271 41.1264
CA -22.1059 -8.95278 55.54
CA -28.9642 -2.95813 64.1087
CA -23.5658 -28.7111 44.4238
CA -5.97262 -29.5096 39.2544
CA 3.69068 -6.40833 42.9185
CA 0.244721 -37.2763 38.4647
CA 8.37849 -23.8493 40.8435
CA -10.6137 -18.1769 16.5184
CA 22.1894 -22.1272 60.6814
CA -7.84943 -30.8328 58.4769
CA -15.8015 -31.8137 49.8574
CA -12.5117 7.32147 64.9888
CA -15.8042 7.44104 67.4215
CA -0.659104 -22.5491 48.4439
CA -19.7704 4.86783 70.7625
CA -21.537 -13.3081 64.2669
CA 15.791 -29.3507 34.3279
CA -3.61428 2.80585 51.4823
CA -19.1665 -4.31166 55.4381
CA -18.7485 -0.184632 50.3869
CA -5.31034 -29.3608 46.8252
CA -14.9705 -9.66825 18.7393
CA -25.9914 -16.9759 61.2414
CA -1.74232 -26.662 44.7121
CA -13.5515 -0.941088 66.6053
CA 8.27637 -20.6448 55.8747
CA -18.2352 -11.4745 54.726
CA -4.77073 12.4116 73.1363
CA -0.278407 -40.4812 41.5783
CA -14.2466 -7.99876 47.8938
CA -11.5422 -25.9625 48.0144
CA 5.99298 11.4002 49.9336
CA 18.038 18.0498 53.1857
CA -18.4769 -0.225945 34.1527
CA -20.1359 -25.8846 46.4985
CA -12.7474 -4.80485 16.8173
CA -17.1351 4.42881 53.9246
CA -19.9255 -0.391627 57.2372
CA -8.61262 -22.5318 29.8988
CA 14.3289 16.9831 52.6839
CA -5.71277 -31.4479 42.0282
CA -13.1427 -7.3772 51.7617
CA -15.1063 -12.6141 17.2706
CA -18.5883 10.8895 75.2358
CA -5.28613 -10.7637 8.96199
CA -13.2156 -7.11221 29.3447
CA -12.7383 -6.53132 46.0845
CA -9.42471 -6.70632 39.0467
CA 10.5019 9.36893 47.2338
CA 8.08926 20.3886 54.6387
CA 4.5092 27.6866 52.3535
CA 29.0664 -26.1502 44.9115
CA -24.8363 -13.4366 57.4469
CA 0.959953 -28.5015 52.2754
CA -15.0597 -23.6791 39.1792
CA -12.2586 -9.38813 55.7654
CA -5.99316 -13.6124 28.9161
CA 19.8653 -36.6688 34.0233
CA -11.1481 -23.8896 29.752
CA -8.02003 7.20158 72.9335
CA -10.5016 -33.3137 57.7277
CA -17.0672 -9.06148 50.1216
CA -18.8569 6.76961 41.4744
CA 6.77915 18.1116 62.7438
CA -10.0301 -13.5491 17.7793
CA -12.1168 -11.8981 35.7447
CA -6.03061 -12.7027 14.4195
CA -20.4949 11.5688 73.254
CA -0.0459131 -41.3553 36.6753
CA -4.81336 -22.6959 45.4305
CA -8.98898 -32.6244 55.3847
CA -9.29355 8.57191 37.0283
CA -12.9825 -9.9082 71.0861
CA 9.3041 -31.4538 30.6735
CA -1.87754 -20.2846 51.4279
CA -18.2928 -12.7759 46.4917
CA -25.2509 0.731924 54.4906
CA -8.65866 -11.5567 23.6108
CA -12.9728 -31.5272 55.6838
CA -18.8819 -13.9291 54.4965
CA 32.8774 -25.9204 44.1018
CA -14.398 -9.01707 62.9373
CA -0.119387 11.2025 46.9705
CA 8.308 20.2308 60.2949
CA -2.37035 -25.1553 42.9049
CA -15.3324 -23.1227 49.6633
CA 10.7839 -32.4338 34.5981
CA 13.1009 -29.3099 45.5223
CA -23.2325 -20.9729 16.864
CA -11.5875 -17.6465 22.1402
CA 1.01089 -28.9224 38.3161
CA -2.38139 -15.4428 21.2711
CA -22.4664 -24.779 18.6576
CA -26.3105 -3.49094 56.3392
CA -18.2966 -9.8624 53.6508
CA -4.58176 -25.2415 49.5482
CA -10.8654 -32.228 56.2642
CA -17.1265 -13.9434 43.8542
CA -14.8797 -20.7847 45.2351
CA -16.5352 1.78866 58.3283
CA -20.362 -22.515 17.0094
CA 17.0577 19.6122 49.5981
CA 10.039 -33.4886 45.7243
CA -8.2225 -13.6507 17.0965
CA -23.1868 -26.0797 22.0427
CA 3.99355 -25.8365 38.737
CA -1.02949 17.3868 44.6477
CA -27.4209 -5.81435 62.5848
CA 14.4996 -26.2922 42.064
CA -1.11783 8.23923 56.7766
CA 6.98131 18.3444 54.4209
CA -12.0916 -9.21795 27.9721
CA -12.6662 -6.15268 48.3547
CA -9.82003 -22.3704 57.045
CA 1.14864 -26.2715 45.3252
CA 1.99354 -5.56918 47.4461
CA -16.2559 4.82936 41.2031
CA 17.594 -27.6366 53.7598
CA -0.291266 13.4374 52.6931
CA -9.71048 -20.2839 47.9327
CA 3.48032 18.6948 22.0823
CA 0.0878874 -35.4999 40.204
CA -18.7697 -37.3735 21.0737
CA -22.4127 -7.60235 57.5428
CA -24.797 -13.2582 66.3479
CA 0.108395 -25.7459 53.8212
CA -6.91281 -12.4302 44.8269
CA -17.4872 -19.9278 14.3298
CA -10.5651 -11.2137 20.1556
CA 12.8573 -18.8207 58.7193
CA -8.11748 -13.8477 27.6396
CA -9.40512 13.1325 42.6632
CA -12.8321 11.7876 75.6606
CA -2.51548 -16.8732 16.1656
CA -14.5046 -11.0039 58.8964
CA -15.4524 1.59445 18.6989
CA -10.5169 13.7025 49.9221
CA -5.95878 -4.42292 15.3705
CA -16.884 -14.5163 55.3422
CA -1.26981 -31.9739 44.1003
CA -16.2103 -24.2937 21.4887
CA -26.4362 -6.50584 56.401
CA -4.18043 15.5508 74.3063
CA -28.4104 -14.5503 58.5885
CA 14.7055 -14.3072 58.425
CA 3.24891 -23.1273 43.3058
CA -19.083 -14.7388 56.246
CA 0.662674 -28.7132 49.8935
CA -6.89952 -11.3617 24.6638
CA -4.16973 -27.5521 42.8386
CA -10.665 -2.53271 68.4717
CA -14.29 11.3149 65.5261
CA 20.9398 -34.1261 33.5175
CA -14.2301 10.9826 71.2595
CA -11.6694 -12.1932 21.3886
CA -19.1 -8.17028 57.7039
CA 0.559982 -31.5349 47.9798
CA -7.58986 -11.0391 47.9513
CA -12.6084 -23.7814 43.5799
CA -10.8088 -6.09333 64.8993
CA 8.61976 25.726 47.4203
CA -9.31 -15.1281 24.735
CA -8.35935 -8.98564 50.6073
CA 17.7229 -31.7859 42.6366
CA -2.23639 -10.0188 49.5658
CA -14.5771 5.55293 50.9312
CA -7.57544 -20.9277 62.1057
CA -7.75899 0.677926 31.5295
CA 7.96991 -10.8658 40.8666
CA -7.28167 -30.1489 29.1274
CA -14.7388 -21.5706 7.44643
CA -14.8184 -11.4206 75.8925
CA -10.235 -9.5047 30.6379
CA 0.378028 -12.8394 16.5219
CA -9.29185 -36.4671 42.9235
CA 15.2977 -32.7116 41.3559
CA -19.9535 -6.72541 48.8739
CA -13.8361 -23.6042 8.55918
CA -20.0988 9.51552 50.9228
CA 13.9942 -23.8189 39.645
CA -14.4394 0.567853 19.8486
CA -8.01231 -10.9502 20.2561
CA 10.3895 -30.5024 53.4039
CA 0.103003 -25.9244 48.5475
CA -28.8777 -10.9269 64.4965
CA 18.9763 -32.0683 53.7955
CA -12.4787 3.51868 41.6587
CA -13.9488 8.27001 79.087
CA -6.81627 -23.7562 56.3134
CA -9.14058 16.3106 73.5668
CA -18.3999 3.29766 70.6807
CA -2.55949 -28.5186 45.9402
CA -4.38217 -10.1156 45.3783
CA -16.7288 -2.38095 56.3637
CA -27.6698 -2.26325 58.8796
CA -12.926 -20.764 29.9991
CA -14.2126 2.02924 34.7778
CA -15.9607 -0.952737 70.0793
CA 11.9662 -32.5165 54.1422
CA -11.8041 -13.0443 24.4233
CA 16.9961 -29.7606 47.425
CA 20.7727 -32.759 32.2838
CA -20.73 -8.3548 27.7688
CA -11.4472 -16.7602 14.6339
CA -12.6521 4.03409 38.9634
CA -5.88371 -13.4637 24.3429
CA -9.47595 -1.0945 20.3918
CA -21.0018 10.0744 58.6879
CA 9.07874 17.3884 61.8248
CA -2.10367 7.93486 47.3013
CA 17.4887 -30.3791 38.7586
CA -2.28617 7.34497 19.3591
CA -9.68906 -25.6985 28.3409
CA 13.2008 -27.1279 36.3996
CA -24.1846 -10.0828 67.5014
CA -12.7643 3.18087 35.6372
CA -16.1496 -22.3953 11.0878
CA -28.8729 -12.8244 56.4037
CA 2.98496 -21.5148 45.5242
CA 15.762 -30.8471 43.6709
CA -16.9029 -8.5388 71.927
CA -12.5499 -25.9216 8.37614
CA -24.6267 -26.1585 23.3478
CA -5.19097 -29.1838 42.4821
CA -1.78218 14.3999 48.6312
CA -6.88298 6.14382 69.6189
CA -12.1041 0.917329 37.6126
CA -6.56168 -19.1143 20.6673
CA -2.64062 -1.14649 21.3439
CA 4.1991 -14.6958 40.3115
CA -7.20692 0.17029 41.183
CA -19.5063 3.03814 56.2834
CA 5.79536 -33.1686 27.0256
CA 17.5787 -24.233 42.3046
CA 0.361205 -25.6869 68.6747
CA -18.8503 -7.86828 50.6853
CA 19.595 -22.5625 35.7269
CA -10.308 -13.3686 21.2417
CA -9.82499 -10.3657 37.0206
CA -16.5978 -0.851121 62.5986
CA -15.0372 -19.2208 16.4987
CA -3.21472 -27.407 48.5076
CA 13.2889 -29.5882 43.7414
CA -4.57328 -29.8809 29.1053
CA -13.1513 -9.38317 18.713
CA -22.7435 -2.29421 51.6048
CA -9.47542 -2.80306 17.0422
CA -6.46396 -31.4026 38.5493
CA -12.5995 -26.0392 12.6104
CA -1.22583 -35.6894 51.1264
CA -8.37359 -9.77599 21.8773
CA 20.6642 -24.3447 31.3946
CA -11.5351 -7.92396 75.7229
CA -1.81794 -2.51537 16.1562
CA 7.22945 -33.3062 30.2012
CA -5.38176 -22.1904 56.7468
CA -14.1898 7.64462 68.953
CA -12.0712 11.8744 62.2328
CA -19.8236 1.89312 37.274
CA 4.18012 -36.0291 49.1634
CA -11.6229 -2.34399 31.5008
CA -0.942351 -22.9733 37.3322
CA -17.2397 -5.30026 51.8354
CA -15.4814 9.98433 63.3667
CA 2.62462 -42.0926 37.4511
CA 0.898544 -21.111 68.1748
CA -5.08076 -4.15214 19.0801
CA -0.734867 -27.8823 42.6018
CA -18.3953 3.48058 72.9364
CA 4.49842 18.3098 53.3025
CA 0.589417 -13.873 13.9961
CA -25.4859 -27.6804 17.8102
CA 7.62592 -31.7807 28.3802
CA -1.79786 19.038 45.0165
CA -4.43082 -33.9037 46.2689
CA -13.97 -24.1064 40.6394
CA -18.3414 -7.18259 27.1549
CA -21.5122 -6.70605 65.0928
CA -3.46329 -31.4235 31.848
CA -18.8643 4.10346 66.8294
CA -3.86352 -34.3812 35.1814
CA -19.4899 4.84051 53.8046
CA -18.3316 4.87687 68.5004
CA -9.13951 -14.3286 22.9113
CA -11.564 -23.8047 50.0925
CA 31.7523 -29.9125 42.7439
CA -23.4342 -18.1295 62.8088
CA -18.4601 -7.63586 62.2836
CA -0.835866 -7.23147 37.2749
CA -23.0969 8.95715 59.3228
CA -0.758762 11.7745 57.4218
CA -5.56685 17.1021 70.9752
CA 10.7165 -30.3331 55.5439
CA -5.43733 3.81199 60.9886
CA 5.48363 -32.4683 57.6831
CA 2.8523 15.3975 43.9451
CA 4.70742 -23.4919 38.0607
CA -5.63398 8.51887 63.6433
CA 7.0987 -23.6114 48.3709
CA -21.2922 -21.5067 18.6481
CA -19.5248 -12.8987 56.6855
CA 13.4281 -32.2047 49.6314
CA -10.2274 -5.53226 71.3992
CA 0.843296 -39.793 37.0568
CA -28.8533 3.63396 56.3285
CA 13.0528 8.55729 48.5557
CA -7.9051 -1.24817 17.5022
CA -15.1567 0.100534 43.5526
CA -14.9194 0.187228 33.9781
CA -4.2558 -20.403 49.6934
CA -14.4843 -24.8372 43.5564
CA -4.35836 8.18623 66.2421
CA -0.0252846 -14.1866 37.2104
CA -26.8413 -26.92 15.7815
CA 35.2308 -27.898 45.785
CA -18.8429 7.72298 67.932
CA -15.4549 13.9903 70.5865
CA 18.9078 -31.903 33.8745
CA 1.00008 -30.0698 53.9928
CA 6.08241 -20.6969 46.4917
CA -18.2887 -9.89434 44.6283
CA 4.38391 21.3058 56.0192
CA -10.0688 -0.317585 31.6422
CA -12.7626 -7.51656 73.1797
CA -10.0924 -7.76725 62.6811
CA -8.67897 -7.32736 17.89
CA -12.4418 -8.89687 31.9794
CA 10.3802 17.8136 63.45
CA 0.429442 15.0267 50.0058
CA -6.79975 -2.68996 19.5754
CA 2.06931 -33.27 46.6388
CA -9.97564 -3.5171 20.6759
CA -18.2921 -6.08282 49.7068
CA -15.7007 -25.7918 9.71844
CA -22.6718 -20.0215 27.5595
CA -17.7542 -13.9972 19.3501
CA -21.3023 12.4804 43.9495
CA 8.60877 -30.7705 33.6687
CA -5.45185 -35.2375 44.5446
CA -2.74814 -24.6636 40.7011
CA -16.6387 9.22392 64.9357
CA 5.14538 -4.36226 39.4621
CA -25.5542 -10.533 58.5737
CA -8.29828 -26.981 29.7802
CA 2.35793 19.874 28.769
CA 1.97707 -14.8908 35.7671
CA -20.9248 -11.7378 56.6669
CA -3.6102 -23.2938 58.0192
CA -29.0549 -15.7331 61.867
CA -20.9702 -0.250963 55.3982
CA -1.56196 -11.1534 37.7979
CA -23.6552 -13.5823 62.6214
CA 15.1496 18.9916 53.5352
CA -3.38951 -14.6187 18.356
CA -12.0874 -15.6746 20.6985
CA 5.38065 16.2643 56.8574
CA -28.2446 -7.60239 61.2573
CA -5.30979 8.29072 41.3196
CA -25.0371 -3.66584 57.6615
CA -12.0967 -22.1412 25.6074
CA -24.3926 -3.61014 51.3757
CA -17.6057 -16.4413 21.1848
CA 4.77173 19.0651 59.5892
CA -12.0203 12.9177 70.633
CA -2.72112 -13.2927 26.6666
CA -9.02508 7.07502 39.3261
CA -19.2115 -25.1069 12.1087
CA -20.1811 -1.20542 53.3228
CA 6.91477 14.5149 77.6319
CA -16.678 -8.24076 46.9351
CA -14.8933 -27.0986 7.97951
CA -30.7076 -16.4245 58.0201
CA -10.2871 -3.96637 43.0428
CA 6.72449 15.7681 45.3645
CA 30.6136 -26.4594 36.0971
CA 4.49957 -10.0658 40.064
CA -17.9049 -0.690524 31.2822
CA -9.87191 11.6898 50.9632
CA -4.40116 11.4308 49.1358
CA -0.772074 -32.9478 48.6949
CA -6.79201 -11.7955 16.4952
CA 15.7943 -31.5605 45.3766
CA -16.8478 -5.7081 62.2799
CA -16.2811 -8.97133 55.0777
CA -30.0028 -4.2619 60.6993
CA -20.7103 -24.013 29.0327
CA -19.872 6.38697 47.8019
CA -14.373 -30.7818 46.7395
CA 1.12674 18.2599 22.7266
CA -11.86 6.10504 43.1645
CA -19.0931 7.13803 62.9651
CA 4.12209 -12.7718 17.3821
CA -29.3598 4.46874 60.5663
CA -25.7489 -24.6413 18.3928
CA -17.0248 -26.3872 47.6243
CA -15.0397 -2.91707 72.3599
CA -17.8239 -3.66199 58.7813
CA 3.3593 -30.0862 58.1425
CA 3.95027 -5.79667 37.8085
CA -32.1737 -14.1825 64.471
CA -1.5123 -34.2197 53.437
CA 3.73857 -13.5599 37.3679
CA -3.33791 -7.9815 39.428
CA -11.9648 7.96082 44.793
CA -6.05223 -24.534 60.5231
CA -7.83721 -24.2518 52.0678
CA -33.0152 1.10546 58.474
CA -7.03821 -30.4658 50.4082
CA -8.41678 -4.54212 18.6751
