489

CA -23.0747 -11.8194 54.3888
CA -14.2037 -22.8791 13.4231
CA 13.833 -16.2843 60.7409
CA -24.4021 -5.57787 49.3944
CA 9.96834 -28.0909 35.1975
CA 2.27816 -37.2896 37.4189
CA 29.9564 -30.8968 41.6221
CA 1.31473 -12.2446 22.8106
CA -11.6697 -12.1731 71.6688
CA -17.2836 5.46934 64.5651
CA -9.58718 17.3997 41.0667
CA -0.649965 -14.0166 17.6165
CA 6.8177 -17.7372 14.6223
CA -15.5089 6.47896 69.1514
CA -2.42202 -22.2026 44.7243
CA -19.6868 9.57116 73.1687
CA -14.8499 -22.4775 3.97516
CA -14.9309 -6.10684 53.9239
CA -17.8293 -20.1305 26.4033
CA -8.02564 0.2168 69.0817
CA 4.38332 -40.5945 40.7084
CA 16.5299 -30.3853 43.3155
CA -19.4097 -17.1104 62.8222
CA 11.8898 -12.4576 37.5035
CA -10.8292 -1.8858 73.0303
CA -10.4786 -6.35641 45.1636
CA 25.5826 -26.2012 42.6213
CA 2.1585 -16.6857 21.5441
CA 12.0004 19.8101 56.5922
CA -22.4117 -28.7831 48.891
CA 22.8134 -28.1594 45.0672
CA -10.3397 -7.57349 16.6079
CA -13.598 -1.38292 31.3721
CA -17.3707 -10.2603 51.0351
CA -12.1111 12.8736 76.7705
CA 16.4956 -16.0935 60.6312
CA -15.37 0.967687 31.206
CA -4.22127 -0.776891 42.1549
CA -5.42155 -23.8353 51.5152
CA 1.78661 -21.3266 42.2714
CA 5.8377 -10.0858 41.9456
CA -7.03079 -0.981837 80.4202
CA -18.59 -26.8656 55.632
CA 3.52766 -9.9462 37.4989
CA -5.92206 10.4074 44.4755
CA -1.91694 -29.417 32.5202
CA -1.45216 21.9203 56.2523
CA -6.49951 -3.96038 42.4257
CA -11.3836 7.87721 67.8522
CA -23.6428 -0.653112 62.4085
CA -17.2796 -21.9055 54.9062
CA 34.6899 -23.9334 44.8413
CA -5.1407 -2.42652 40.1679
CA -3.29601 -26.2008 43.3529
CA -19.0614 -7.47572 54.6599
CA -12.2467 -29.6758 42.865
CA -2.10972 12.9901 74.8638
CA -18.3415 -25.1793 56.451
CA -3.63742 -9.17345 11.686
CA -2.06668 24.2272 57.158
CA -10.5768 -3.65655 17.2671
CA -0.0658955 -35.5153 38.9587
CA -18.3715 2.83816 48.5388
CA -4.94493 20.8656 45.5572
CA -3.31796 -34.1696 41.92
CA -12.4853 -25.0978 30.0303
CA -3.52607 -6.0402 39.0911
CA 4.27014 -30.9082 41.8346
CA 2.41797 14.5154 55.4253
CA -3.92476 5.63041 61.0974
CA 0.807317 -26.1144 64.4217
CA -8.41054 -37.088 52.8759
CA -6.80814 21.2012 45.1953
CA -10.8091 -29.0274 59.2607
CA -18.4732 -23.8193 19.4887
CA -14.8122 -10.9006 46.1604
CA -2.06475 -28.0865 34.1948
CA 23.7259 -23.8119 45.4723
CA -5.55453 -24.0417 31.5242
CA -10.9652 12.5248 79.1451
CA -13.2376 1.84109 62.3496
CA -8.99415 -35.8175 51.5069
CA 3.11155 -28.5698 40.0513
CA -5.97262 -29.5096 39.2544
CA -2.30107 -1.04838 38.6779
CA -2.2881 -30.0791 34.2734
CA -8.58857 -8.21549 20.2975
CA 1.88063 20.0671 56.2171
CA -9.35992 -19.9483 19.3922
CA -13.8169 -1.90867 69.1297
CA -15.9198 3.51504 32.9012
CA 4.55259 -12.578 38.1719
CA -17.2809 -17.7476 15.2674
CA -4.4662 -4.40975 38.4796
CA 1.15283 -33.4653 42.6501
CA -5.14912 -3.0828 71.7304
CA 0.145169 -10.0389 38.0074
CA 8.55543 -29.3984 32.6195
CA -0.258484 -24.7842 29.3282
CA 7.56474 -35.0985 36.5303
CA -24.7193 -15.7648 53.7595
CA -10.5572 -23.3741 54.2668
CA -14.0298 0.375229 59.5933
CA -17.1229 -20.072 54.5572
CA -4.16398 -20.2806 25.2044
CA -11.5454 1.66005 64.1777
CA -18.2352 -11.4745 54.726
CA -1.52764 3.0537 77.9298
CA -24.2948 -14.1184 58.7809
CA -15.9989 -6.22843 55.8899
CA -14.4805 -9.44469 30.9827
CA 8.69246 -35.3985 45.0758
CA 1.91407 -14.8761 15.3173
CA -25.193 -4.15643 60.5234
CA -3.26828 -31.5108 39.3237
CA 12.9748 25.4077 53.5278
CA 10.1054 20.1043 56.4682
CA -3.72605 -25.9655 29.662
CA -14.5557 -2.1115 56.6888
CA -6.36135 -2.6055 73.2913
CA -22.5537 -3.56183 58.2417
CA 11.1931 -27.9147 39.0377
CA -11.7059 -35.5897 43.5647
CA -1.84283 3.38645 74.4481
CA -6.39334 -27.759 39.9029
CA -15.2541 3.91352 56.7388
CA 2.70778 -11.9154 38.7915
CA 19.7746 -29.8863 45.7127
CA 22.0215 -24.7782 43.255
CA 2.48659 15.8216 59.1879
CA 14.9851 -19.7309 37.9812
CA -8.55363 3.9759 47.2366
CA -8.90907 1.008 73.9039
CA 4.12702 -31.7067 34.9056
CA 38.1784 -25.2027 40.0585
CA -10.5781 -11.195 15.795
CA 10.4324 -24.6121 44.1464
CA 18.9854 -23.7543 40.3718
CA -14.3845 -18.3384 51.8781
CA -8.13861 -14.3843 13.2154
CA -2.51687 9.12884 66.5647
CA -19.8961 -3.19558 57.4783
CA 3.12037 -21.3365 38.6352
CA -9.51766 17.0252 48.4459
CA -30.4229 -6.9974 62.0459
CA -22.7116 4.62236 39.9328
CA -21.2863 -4.91099 63.966
CA -6.33778 3.45909 65.6772
CA 0.110624 -42.4563 39.9659
CA -12.4498 -31.46 53.7736
CA -7.34951 -7.62193 28.4523
CA -16.1654 -0.153562 57.2351
CA -5.42851 -37.687 40.8837
CA -18.0764 -1.52002 57.1143
CA -8.30074 16.2016 43.2485
CA -4.85536 -29.2658 51.9156
CA -2.86287 -10.7929 12.4091
CA -2.73248 -3.60997 79.4641
CA -19.1813 -20.7467 -0.919415
CA -7.37861 -19.2259 43.6911
CA 5.68873 -16.1252 21.7947
CA -19.4848 0.0966713 55.4311
CA -14.8504 -9.12438 56.9619
CA -11.7296 -33.1771 37.6217
CA 8.23763 -14.245 35.3285
CA -15.3324 -23.1227 49.6633
CA 10.7839 -32.4338 34.5981
CA -1.98674 11.2993 56.9248
CA -12.1606 -20.3715 3.64609
CA -10.4727 14.3433 52.2583
CA -16.189 -8.37084 45.302
CA -1.16192 15.7549 42.4277
CA 2.00164 -39.1392 39.39
CA -21.1924 -4.64051 60.9047
CA 3.05172 -17.1737 17.8032
CA -13.6065 4.6001 57.1519
CA -10.8654 -32.228 56.2642
CA 9.09517 -38.1575 40.8424
CA -15.9162 -35.604 51.4755
CA -21.6305 0.17287 58.3751
CA 13.3395 20.1412 58.3054
CA -16.033 -3.40448 59.3437
CA -9.47775 -16.4978 60.8026
CA -25.8688 -1.07102 60.0727
CA -8.36116 -27.8919 40.9885
CA -12.4702 -10.2423 34.6917
CA -1.02949 17.3868 44.6477
CA -6.01725 18.0704 47.2767
CA -13.8211 -37.3981 53.3835
CA -1.52746 -12.3139 68.3186
CA -0.606614 -29.0049 35.5171
CA 28.9101 -22.8733 45.2718
CA -10.959 9.46884 54.1542
CA -5.42961 5.62563 62.3434
CA 36.459 -23.5678 45.7349
CA 9.57505 10.3847 72.0051
CA -6.67756 -20.8696 44.3966
CA 3.16978 -28.8525 43.0359
CA -4.06951 0.0804564 37.9094
CA 28.8345 -25.6376 42.4951
CA -0.672964 10.513 60.037
CA -5.86522 -18.1698 21.7299
CA -15.4146 -27.692 43.856
CA -12.2734 3.97123 62.8366
CA -5.40576 -10.1985 11.1327
CA -17.371 2.27128 62.5542
CA -3.96613 -35.2818 45.3534
CA 30.0763 -21.474 44.6958
CA -3.87493 -13.5383 14.2818
CA -24.5688 0.70577 39.8183
CA -0.477512 -21.1556 51.0089
CA 10.5476 -20.807 37.4163
CA -26.2741 -5.74264 55.8067
CA -2.87869 5.27408 72.5161
CA -18.7375 -7.50728 59.5148
CA -2.24666 7.4252 67.2633
CA -19.8637 -22.548 30.2842
CA 7.49166 8.11302 51.6475
CA -16.3483 -18.9888 30.764
CA -5.45396 -38.4012 36.55
CA -6.92188 -37.5488 47.4908
CA -14.2487 -19.9475 13.6742
CA -17.4501 -5.28686 55.3705
CA -28.4104 -14.5503 58.5885
CA -14.5147 -12.9513 48.8429
CA -12.5232 14.037 79.2611
CA 7.24657 -19.6415 38.7616
CA -13.4293 -3.49503 54.5418
CA -3.23698 -35.1887 38.2951
CA -12.0127 -14.2983 72.9085
CA -12.602 -5.4746 35.8986
CA 0.441491 -17.4831 38.8922
CA 1.06189 18.4835 40.3597
CA -9.55921 6.45934 70.5717
CA -1.32024 -32.7793 36.7128
CA -2.65801 -29.9963 43.0447
CA -2.55709 -12.9296 17.8239
CA -11.7402 -21.3816 20.8636
CA 8.25185 13.088 55.6782
CA -13.2605 -21.4177 30.9486
CA -13.0155 -8.96229 17.6305
CA -3.62847 -31.4713 48.8212
CA -23.624 1.6335 60.7714
CA 0.361062 15.4192 55.999
CA -15.9054 -0.829002 16.4053
CA -2.30626 8.89303 58.2845
CA 1.97971 10.9246 61.6196
CA -13.495 6.79981 33.8593
CA -5.51679 -34.6651 60.1188
CA 11.6023 -23.5351 40.8947
CA -20.5098 -6.00071 57.7424
CA -18.446 -9.70835 53.8514
CA 34.5197 -27.5406 41.7111
CA -8.2804 -32.6487 39.8633
CA -0.142322 10.2909 67.2385
CA -28.4462 -11.9215 56.8432
CA -16.5387 4.77567 71.557
CA 10.0052 -13.9572 37.2544
CA -12.5204 -9.46413 20.0132
CA 12.2875 -20.2265 42.8168
CA -12.1924 11.1147 53.5734
CA -10.4032 -13.5565 16.078
CA -9.6777 -19.2425 47.1589
CA -13.2983 -1.95561 35.7424
CA -8.83505 -2.69931 31.5785
CA -17.6713 -7.16237 51.9677
CA 0.198003 -35.178 45.8467
CA -8.69846 -20.2367 56.4751
CA 0.866397 8.89207 62.3047
CA -11.6249 -33.5801 57.1939
CA -26.4821 -9.00655 52.408
CA 32.2651 -27.9839 44.7134
CA -4.22581 -11.802 25.32
CA -3.33188 14.4134 58.7878
CA -15.3066 -22.8231 21.3067
CA -12.0218 -19.2687 55.7588
CA -14.2126 2.02924 34.7778
CA -9.797 -30.1357 51.1068
CA 11.6514 -30.6083 35.4951
CA -2.47006 -15.7382 25.4213
CA -0.90152 -30.8142 55.5961
CA -4.19348 -30.7154 46.8402
CA -3.33231 -23.5967 30.1927
CA 7.86463 16.0629 57.6141
CA -13.3974 -8.7302 48.6271
CA -9.83261 6.612 65.7829
CA -2.61552 -37.0632 40.3931
CA 3.55304 -12.9319 22.6814
CA 23.1812 -20.846 41.9507
CA -22.7144 8.02053 75.9148
CA -18.7548 3.61448 60.5216
CA -9.07297 -3.50216 71.0593
CA -4.63065 -28.4241 57.8076
CA 13.2008 -27.1279 36.3996
CA -17.297 -13.5353 18.5485
CA 24.4321 -25.7175 38.7212
CA 11.6503 -26.1075 43.4139
CA -15.5645 8.56968 75.6864
CA -17.9749 -8.40447 61.1137
CA -11.7265 -11.76 13.4482
CA -17.4162 -20.5696 10.0279
CA -18.6568 2.43042 58.1556
CA -6.05379 19.0271 43.6286
CA -15.9182 1.09898 52.4738
CA 1.64112 -15.1054 19.7094
CA -12.2738 -21.1156 10.5271
CA 4.98924 -34.0954 33.5564
CA 0.547852 13.9359 52.5436
CA -0.553655 -42.3576 37.4486
CA -9.55337 -7.762 18.288
CA -23.4979 -12.8626 56.9962
CA -21.3022 -23.017 57.1676
CA -5.26054 -1.5193 38.1356
CA -1.75118 -24.1463 27.7578
CA 19.0398 -15.21 57.1036
CA -14.5632 8.06031 55.0399
CA -8.63613 -7.91096 72.7127
CA 1.17061 -14.1183 13.6795
CA -9.82499 -10.3657 37.0206
CA 20.0932 -24.8496 43.5461
CA 2.78004 -7.90547 45.3429
CA 10.3846 -35.9329 35.611
CA -20.075 -39.8256 20.6378
CA -7.60196 -37.0803 38.8287
CA -0.855598 -37.9784 36.1954
CA 20.4437 -13.3697 56.7374
CA -10.0642 -1.14238 60.6716
CA -20.0536 2.60783 61.3836
CA -12.8327 -10.9987 16.1105
CA -9.62158 4.48761 41.9172
CA -3.03791 -23.5807 24.3369
CA -21.0063 -29.0296 52.7883
CA -27.2705 -12.8655 60.7972
CA -23.8826 7.64964 78.0226
CA -9.69279 -20.8802 45.2616
CA 6.5826 7.98938 45.5911
CA -1.59514 -42.0216 41.1769
CA -14.4014 -28.0995 57.6937
CA -17.4338 -24.3152 -0.521713
CA -7.47385 -31.8849 38.1265
CA 0.232329 -34.4227 36.1074
CA -9.93202 -4.07706 60.6071
CA -12.1913 3.87117 16.0009
CA 26.4786 -23.5225 46.5668
CA -15.2797 -32.2185 52.8229
CA -11.6005 -10.3477 27.9359
CA -27.7674 -15.1584 55.7764
CA -8.06876 -5.13072 38.7483
CA -12.0467 -21.99 5.99982
CA -8.97069 -29.9837 60.5988
CA -6.38234 -31.2184 57.8633
CA -3.99228 12.4553 44.772
CA -3.62941 -1.48795 78.6478
CA 0.942576 12.3999 69.2377
CA -16.1607 -22.4095 14.7154
CA -0.275915 -27.7256 30.4763
CA -14.814 9.21849 59.6878
CA -3.0538 -26.3068 39.7253
CA 17.3837 -22.6381 38.8477
CA -16.1561 -17.6707 54.9089
CA -17.4828 -7.94365 57.0446
CA -16.3223 -7.6713 18.7005
CA -16.1634 -8.5032 49.0756
CA -7.03637 8.45285 68.8573
CA -14.606 3.87842 59.3145
CA 31.7523 -29.9125 42.7439
CA 9.65397 -12.796 35.1978
CA -7.8603 -10.1241 69.9516
CA -7.74913 -12.9951 16.4528
CA -13.3419 6.15588 66.2165
CA 16.4388 18.1688 49.0198
CA -6.38302 -5.89405 38.6914
CA -14.2129 -19.1748 29.2472
CA -5.9571 -19.2898 17.6716
CA 4.94746 -8.61979 44.9105
CA -24.9781 -3.40879 57.9935
CA 4.70742 -23.4919 38.0607
CA -26.0408 -2.01109 58.4443
CA -14.8425 -6.73104 57.8584
CA -11.0683 -36.3423 55.6099
CA 0.469824 17.1659 46.2056
CA -16.154 -18.491 26.8212
CA 28.1046 -27.2226 41.264
CA -5.2073 -8.33666 11.3419
CA -28.8533 3.63396 56.3285
CA -14.0696 17.2239 76.9233
CA -9.42964 18.8287 42.5669
CA 16.4679 -18.9624 63.7165
CA -15.8965 1.24065 60.9202
CA -11.8387 -0.350767 17.4161
CA -7.39791 4.61948 66.8271
CA 0.863855 -7.51347 45.5649
CA -20.3713 -9.43723 54.3328
CA -17.8865 -33.962 53.1999
CA -13.0974 11.843 56.2278
CA -23.0273 -4.98759 53.9073
CA -13.9274 -3.88992 50.7849
CA -14.8585 -5.6798 50.6934
CA 8.7139 -16.5246 35.8657
CA -19.7536 -22.9569 41.7158
CA -17.7201 -13.3014 65.1112
CA -7.4345 -11.5059 14.1143
CA -8.06763 -3.00242 28.6364
CA -12.7626 -7.51656 73.1797
CA -10.0924 -7.76725 62.6811
CA -16.7433 -7.85413 47.2882
CA -13.0333 10.1845 54.904
CA -10.9684 -7.76865 72.2644
CA 6.65464 -13.3635 36.5053
CA -8.17349 -32.8477 43.0456
CA 4.17361 -14.2581 16.5711
CA -0.139431 -26.4419 43.2949
CA -27.7204 -4.89505 57.37
CA -2.49774 11.2864 60.8506
CA -28.7198 -14.1024 51.2356
CA -2.52252 -1.722 41.7154
CA -12.0679 9.1772 57.1629
CA 5.74572 -15.2428 18.5141
CA -7.2462 -1.77905 37.4534
CA -2.44205 -20.8798 56.2733
CA -8.70172 -5.9387 18.9115
CA -7.58978 -10.9991 16.7862
CA -4.32708 -27.7715 41.6169
CA -12.9835 -16.9661 19.2132
CA -13.5073 -24.6733 11.9281
CA -20.5663 -23.1504 15.3236
CA 12.1964 -15.0907 33.4067
CA -9.00286 5.14696 40.0817
CA 6.06521 18.0465 55.1271
CA 1.97748 18.3139 59.6281
CA -1.56196 -11.1534 37.7979
CA -7.38073 -18.4536 55.7798
CA -22.0261 0.108271 60.1736
CA 30.2171 -26.7789 41.6816
CA -3.82008 -12.6439 10.5458
CA -21.8376 -19.2543 15.4542
CA 7.63578 -30.6489 35.6613
CA -0.430919 -9.97181 18.6559
CA -19.3792 -22.5828 16.9352
CA -12.0967 -22.1412 25.6074
CA -22.6339 -6.0067 55.7274
CA -11.3185 -22.1007 49.1919
CA 4.77173 19.0651 59.5892
CA -16.4919 -18.4389 51.7991
CA -12.759 1.24755 13.0227
CA -3.65901 9.42467 60.3753
CA -13.1086 16.8208 82.3934
CA -2.63509 -5.71916 40.6792
CA -17.6081 -6.497 20.9837
CA 14.0171 -20.2686 62.7859
CA 0.367532 -32.5413 46.305
CA 37.1495 -25.5619 44.2142
CA -15.4857 -12.7751 46.4726
CA 13.021 -34.6659 49.6136
CA -6.86724 -8.07157 34.3617
CA -1.89355 -1.33799 79.5248
CA 15.5083 -20.1458 61.2321
CA -18.5349 -26.7567 44.008
CA 3.10298 -17.3161 37.1059
CA -5.2924 2.00069 80.236
CA 6.60856 -18.6808 17.6907
CA -4.2372 -21.4524 50.739
CA -16.5714 9.87308 60.1609
CA -11.4984 9.49561 34.2725
CA -21.4034 -16.4585 54.3475
CA -7.15827 -20.1659 16.5342
CA -11.8714 -11.1498 47.931
CA 2.64379 16.9461 57.7044
CA 9.03087 -14.7211 17.1081
CA -14.6245 -2.9264 15.584
CA -6.00918 -29.3383 48.5367
CA -8.18387 -40.2831 44.6113
CA -25.442 -3.53716 51.9374
CA -27.2333 -12.2765 68.1149
CA -6.27963 4.53905 42.613
CA -15.4298 0.954422 26.2807
CA -17.8239 -3.66199 58.7813
CA -6.46537 -25.4334 52.4137
CA 6.21022 -14.9152 40.3024
CA -3.27102 -18.034 19.3493
CA -1.5123 -34.2197 53.437
CA -20.5581 -9.53098 62.0351
CA -9.6628 -9.80249 18.24
CA -20.7342 -0.833453 63.308
CA -23.6782 2.25919 58.2489
CA -6.61648 -0.989045 77.7088
CA -3.30388 1.49378 45.357
CA -20.7729 8.46428 75.2524
CA -3.48449 2.45154 67.9206
