489

CA 0.381168 18.7317 58.8266
CA -26.8656 1.0305 61.282
CA 13.833 -16.2843 60.7409
CA -9.52376 10.0808 50.5492
CA -11.2848 -21.7663 52.5524
CA 2.27816 -37.2896 37.4189
CA -18.0181 -26.851 15.1431
CA 5.3299 -1.74379 40.2264
CA 18.525 -32.3266 45.1995
CA 0.959771 7.93433 69.3445
CA -16.2057 -28.9543 57.7326
CA -6.14391 -27.5045 31.7091
CA -13.3197 -21.8214 51.748
CA -15.5089 6.47896 69.1514
CA -16.5165 -17.7576 58.8896
CA -19.6074 -23.0492 10.0752
CA -28.0172 -2.43329 64.3462
CA -14.9309 -6.10684 53.9239
CA -16.6736 -8.34836 19.4515
CA -29.4867 -16.7291 59.9163
CA -19.023 -8.35609 59.7851
CA -0.857485 5.52909 68.9505
CA -15.2978 -27.0575 46.0222
CA -17.0547 -6.79357 59.8638
CA -15.6368 -1.47488 18.3146
CA -10.5175 -21.1637 42.1468
CA -9.03909 3.97577 67.2051
CA -15.8846 -6.30844 75.2219
CA -9.01693 -7.59935 35.5569
CA -11.5146 -8.12887 29.7089
CA -17.1332 -11.5027 44.2292
CA -6.14732 -37.3388 54.9552
CA -11.4223 -2.44725 38.3704
CA -17.3707 -10.2603 51.0351
CA -12.7033 11.0702 57.4775
CA 31.3561 -22.4842 37.8894
CA 2.23863 0.344116 68.7152
CA -7.8064 -37.5159 41.9691
CA -13.1843 -10.3953 18.5398
CA 1.78661 -21.3266 42.2714
CA -14.8302 10.8164 66.7127
CA -1.37858 -1.23607 70.0337
CA 28.0721 -32.9362 44.0445
CA 3.52766 -9.9462 37.4989
CA -20.2989 -4.53241 41.5033
CA -11.7886 6.19884 69.5073
CA -5.74564 -38.5246 52.3181
CA 11.4689 -26.4036 44.9959
CA -17.2279 8.29271 75.5792
CA -4.15571 22.7911 44.1106
CA -14.2126 -5.16808 7.95381
CA -9.78558 -6.18112 7.32223
CA -6.10549 -23.0674 12.5001
CA -5.9923 19.8857 46.4015
CA -7.07717 -7.72098 44.5633
CA -12.9434 13.1393 46.9801
CA -2.10972 12.9901 74.8638
CA -15.5303 -30.344 49.6131
CA -21.2403 1.21627 64.0897
CA -18.4559 -11.524 73.9236
CA -10.5768 -3.65655 17.2671
CA -0.0658955 -35.5153 38.9587
CA -29.9598 -13.0907 60.1974
CA -10.5753 -9.83257 68.4563
CA -6.86674 -0.0110828 79.2485
CA -10.8479 12.2533 60.3515
CA 0.890366 -11.7613 39.9102
CA -3.92113 -14.9373 57.5072
CA -6.67722 -29.2875 48.9533
CA -15.2148 -13.1889 54.7449
CA 4.07232 -18.4894 15.3951
CA -8.41054 -37.088 52.8759
CA 13.1581 -23.2927 44.6697
CA 8.0006 -10.0821 43.9566
CA 8.00897 -11.9153 31.4103
CA -27.3051 -5.86713 63.3555
CA -13.5308 -40.6893 41.4173
CA -15.063 -6.7718 82.1738
CA -10.7662 -34.8039 50.8913
CA 37.8686 -28.0617 45.7765
CA 0.37021 9.07873 54.4253
CA -9.57465 14.493 45.9522
CA -13.3532 7.71457 67.5978
CA -13.4856 -12.1391 56.2212
CA -2.30107 -1.04838 38.6779
CA 5.70835 -9.38022 18.8962
CA 2.66443 -31.3798 53.8861
CA 1.87922 11.4205 59.3762
CA 3.14202 20.1406 61.5753
CA 32.3551 -22.9063 40.2309
CA -15.9198 3.51504 32.9012
CA 4.55259 -12.578 38.1719
CA -13.4005 12.3997 59.5485
CA -7.20657 -35.2547 43.2026
CA -6.40836 3.21693 62.0986
CA -9.50436 12.1946 58.6524
CA 0.145169 -10.0389 38.0074
CA 8.55543 -29.3984 32.6195
CA -0.258484 -24.7842 29.3282
CA -2.38765 9.68806 58.1751
CA -14.7604 -5.08427 38.4393
CA -6.13156 13.9905 60.5495
CA -15.3073 -6.82104 18.3732
CA 0.211449 -35.5856 50.9561
CA -4.16398 -20.2806 25.2044
CA -14.0537 -2.78044 67.2308
CA 2.95413 -41.4768 38.9097
CA 6.15519 -28.735 35.2573
CA -5.83643 14.0114 63.9432
CA -17.5549 -0.356895 61.0475
CA -4.25034 -20.6893 55.9356
CA -30.6494 -14.8505 55.9705
CA -25.535 -0.783777 55.921
CA -7.69148 -8.12537 14.4658
CA -11.4181 -27.715 50.8402
CA -13.4216 11.6643 78.7383
CA -6.61765 -31.6623 41.209
CA -10.9524 -18.8925 14.062
CA -12.5887 -15.2157 33.7825
CA -6.36135 -2.6055 73.2913
CA -2.96557 -14.0165 14.6897
CA -12.0077 -21.8044 43.2349
CA -1.87813 15.7418 50.2234
CA -15.6331 -21.3536 14.7964
CA 4.0532 -12.1599 15.6819
CA 11.5494 -18.7945 41.5412
CA 2.70778 -11.9154 38.7915
CA 3.68204 4.97383 60.5948
CA 22.0215 -24.7782 43.255
CA -13.8168 -13.7481 12.6847
CA 14.9851 -19.7309 37.9812
CA -8.55363 3.9759 47.2366
CA -2.29863 -30.19 58.2181
CA 0.45373 -22.1407 43.2954
CA 38.1784 -25.2027 40.0585
CA -9.39457 -11.0342 30.6656
CA -7.86223 -4.27293 79.3389
CA 18.9854 -23.7543 40.3718
CA 34.9346 -25.7432 45.6529
CA -23.4088 -16.1588 65.0419
CA -11.1845 11.0207 68.1388
CA 32.1307 -27.7888 41.0823
CA -19.4489 -1.02067 42.7645
CA 6.29346 -11.0573 44.2405
CA -2.09483 -1.10994 63.4029
CA -8.32938 22.7305 51.7541
CA -12.0514 -19.4871 33.167
CA -6.33778 3.45909 65.6772
CA -17.7931 -6.49242 49.1396
CA -1.09124 -29.6795 30.8798
CA -8.2397 -28.4053 55.5874
CA -9.52743 -17.2762 17.9707
CA 17.4819 -28.4229 43.8263
CA -24.0845 -3.34205 61.5733
CA -14.839 5.54405 70.9568
CA -4.4467 -28.4449 36.1753
CA 2.67814 -34.0631 39.2988
CA -26.5065 -3.44289 56.3737
CA -1.27517 -26.8792 32.6266
CA 0.461372 -0.882029 40.7303
CA 3.61532 -16.686 17.5924
CA 3.99641 -35.5751 38.3973
CA 7.93217 -24.2389 46.3945
CA -1.73517 -12.7051 29.1846
CA -10.4368 8.62395 52.01
CA -15.3324 -23.1227 49.6633
CA 10.7839 -32.4338 34.5981
CA -1.98674 11.2993 56.9248
CA -6.9621 -18.2081 48.7976
CA -17.1283 -22.7324 48.9573
CA -26.0617 -16.2397 59.473
CA -5.41332 -13.458 24.821
CA -8.16028 23.0825 48.4637
CA -16.9771 -9.2076 21.3481
CA 33.3232 -29.9294 48.016
CA 10.3564 -21.7739 47.0817
CA -10.8654 -32.228 56.2642
CA -16.1799 -27.9744 54.9427
CA -18.7563 -23.3073 6.60994
CA 34.1951 -24.1382 38.3205
CA -28.3432 -12.9395 58.0292
CA 14.3627 -30.6831 46.7735
CA -9.47775 -16.4978 60.8026
CA -8.8124 -15.4734 47.8391
CA 5.55092 -18.4951 16.8105
CA -12.4702 -10.2423 34.6917
CA -17.7831 -9.40686 43.3561
CA -6.01725 18.0704 47.2767
CA -10.1841 -40.2947 41.5884
CA -16.2448 -21.0976 16.7078
CA -6.54386 13.821 65.6496
CA 2.43607 -22.1353 12.2371
CA -10.959 9.46884 54.1542
CA -8.44916 -9.89346 66.9951
CA -17.1071 -23.8085 12.1238
CA -10.6534 -6.71622 36.3441
CA -15.6217 -11.083 58.7048
CA -15.2657 -10.1178 17.9486
CA -3.00184 -26.7255 30.1669
CA -12.392 1.86783 16.2033
CA -6.76946 -27.8836 62.9681
CA 3.37541 2.01763 65.081
CA -19.7264 7.54761 66.5208
CA -25.758 -14.2051 61.2206
CA -11.6902 -17.5441 47.6023
CA -17.371 2.27128 62.5542
CA -7.39378 -19.5933 30.9049
CA -5.47716 1.92307 68.7138
CA 6.47481 18.6911 58.888
CA -10.27 -9.43497 34.7038
CA 11.1261 -24.269 48.8545
CA 6.84545 25.8118 53.1952
CA -16.2303 -17.1089 47.1992
CA -9.31998 -5.97537 37.5727
CA -27.235 -15.9706 69.369
CA -13.3672 -27.4687 46.2409
CA -25.6618 1.35033 53.4618
CA -19.5399 -5.77075 18.9917
CA 10.3474 -9.78122 34.0098
CA -21.3969 -29.1681 44.8765
CA 9.81345 -6.43813 45.097
CA -14.2487 -19.9475 13.6742
CA -9.06347 -20.5618 30.8115
CA -3.01024 -24.9294 44.763
CA -23.0062 -2.00596 51.0015
CA -6.50997 -20.698 60.372
CA -5.07051 -15.7691 15.9366
CA -1.6029 10.016 68.8388
CA -5.3035 -24.1378 63.1745
CA 36.3603 -27.0254 47.9618
CA -6.90389 7.72072 60.1844
CA -4.41063 -6.39972 77.8142
CA -12.0837 -3.2958 62.2752
CA -9.55921 6.45934 70.5717
CA 2.36635 -33.7305 41.8474
CA -2.65801 -29.9963 43.0447
CA -2.55709 -12.9296 17.8239
CA -20.5303 -23.8547 15.1043
CA 1.48028 -1.45859 70.3017
CA -10.8837 -3.89304 80.0406
CA -0.418917 -15.0696 26.2806
CA 17.4072 -20.3738 40.4552
CA -10.334 20.237 82.5866
CA -17.1259 -24.91 31.2884
CA -15.9054 -0.829002 16.4053
CA -15.7857 -13.4663 21.1083
CA 1.97971 10.9246 61.6196
CA -13.495 6.79981 33.8593
CA -25.1087 -12.778 52.9531
CA 11.6023 -23.5351 40.8947
CA -10.392 0.472139 64.6088
CA -17.5712 -21.7663 12.3815
CA 13.7694 -32.1012 35.3025
CA -9.87458 -4.71242 44.3485
CA -5.93805 -27.0352 34.9156
CA 6.80439 -19.4651 19.4684
CA -6.77444 -6.14287 63.1446
CA -2.67602 -31.6309 30.3758
CA -12.5204 -9.46413 20.0132
CA -7.18537 -32.5515 53.1545
CA 1.06597 -26.4164 51.4396
CA -7.8424 20.8307 43.5499
CA -5.64232 8.75454 47.9526
CA -22.8417 -29.0694 40.3322
CA 31.8282 -28.203 46.0478
CA -7.59072 1.9305 61.4339
CA 0.198003 -35.178 45.8467
CA -19.1901 -6.07581 40.7591
CA -10.6628 3.9792 73.0884
CA -20.1805 -21.2998 51.0906
CA -26.4821 -9.00655 52.408
CA -10.1825 8.00647 59.3758
CA -4.22581 -11.802 25.32
CA -3.33188 14.4134 58.7878
CA 4.83693 -16.384 16.1475
CA 12.3508 -10.6553 30.1998
CA -14.851 -17.8345 12.6164
CA -9.797 -30.1357 51.1068
CA -7.27908 -25.4777 60.3926
CA -2.47006 -15.7382 25.4213
CA -6.29618 -12.2467 30.3957
CA -18.721 0.584273 65.0027
CA 11.4518 -13.3309 27.9435
CA 6.54497 -12.9735 15.6394
CA -8.40159 -0.489354 78.1867
CA -3.8615 -18.9352 59.3609
CA -2.67832 -12.8484 25.3213
CA 2.06683 3.52233 62.5446
CA -18.1901 -23.4967 24.7884
CA 32.9569 -24.0872 47.958
CA -9.88871 -6.96721 13.0182
CA -9.07297 -3.50216 71.0593
CA -4.63065 -28.4241 57.8076
CA -14.7996 -23.4438 33.5652
CA -22.5114 -14.3355 64.4185
CA -11.8672 -24.2455 49.3469
CA -5.05091 -31.2154 55.7268
CA 3.92479 8.90879 63.0637
CA -11.629 -2.87244 72.1077
CA -10.4003 2.07221 78.9031
CA -17.4162 -20.5696 10.0279
CA -11.6042 8.34434 63.7594
CA -28.5576 -14.964 62.0938
CA -9.42544 6.96143 48.6523
CA -17.172 -4.39786 14.4322
CA -10.4074 24.8157 49.0405
CA -18.8955 -20.6373 29.2918
CA 0.547852 13.9359 52.5436
CA -16.1299 -25.4351 25.2563
CA 39.3196 -26.4949 42.1753
CA -0.674357 -37.4323 34.353
CA -8.62865 -0.606879 40.2198
CA -2.96244 9.3969 65.0485
CA 23.7767 -23.2758 46.1722
CA 19.0398 -15.21 57.1036
CA -14.5632 8.06031 55.0399
CA -15.0122 1.64335 57.9948
CA -32.4013 -3.68202 60.6112
CA -10.3244 -4.14403 36.3714
CA 20.0932 -24.8496 43.5461
CA -6.63159 1.07649 37.2987
CA -2.82656 -25.9947 47.8364
CA -14.1338 -0.481803 66.898
CA -20.3296 0.389145 37.1705
CA -9.11381 -3.38946 80.8061
CA -11.534 -7.71505 39.9409
CA -9.75805 -10.8719 16.4153
CA 0.564402 -16.1763 15.6823
CA -3.28713 -10.4991 32.4311
CA -12.6251 -25.7783 31.8756
CA -21.3432 0.0918281 61.7553
CA -15.645 -3.96463 80.0053
CA -14.1239 -0.623193 41.8084
CA 4.40249 -29.3403 49.8573
CA -19.6869 -8.41124 51.7318
CA 4.22806 -34.0112 41.0907
CA -5.43634 -31.2042 59.5345
CA -10.803 8.11061 66.2257
CA -9.62705 -31.8987 41.3582
CA -20.6252 -11.8496 56.7806
CA 9.85757 -15.9663 37.661
CA -9.93202 -4.07706 60.6071
CA 22.7802 -25.4616 47.5455
CA -8.82046 -6.11088 21.2864
CA 2.19109 -10.5823 33.9184
CA -11.6005 -10.3477 27.9359
CA -0.355471 -30.8334 35.9106
CA -0.690112 -9.4067 78.0004
CA -18.9029 -4.16417 40.4137
CA -3.41442 -34.2018 58.1557
CA -6.38234 -31.2184 57.8633
CA -5.53535 -4.60461 73.8269
CA -3.62941 -1.48795 78.6478
CA -12.9038 -1.98658 43.4114
CA -17.9822 -16.4177 45.8711
CA -10.5874 12.6753 62.3323
CA -14.814 9.21849 59.6878
CA -6.01044 1.40198 62.7767
CA -16.2473 -9.60809 23.6797
CA -23.7666 -0.846304 56.8551
CA -8.14208 -9.67793 35.2401
CA -14.0154 -4.03643 75.2971
CA -8.79627 11.9139 61.8646
CA -15.2332 -9.6441 21.5262
CA -6.23447 -20.2534 10.458
CA -14.6803 9.27461 79.4551
CA 9.65397 -12.796 35.1978
CA -5.09338 -16.8652 55.5092
CA -4.16653 -7.85795 12.8394
CA -13.357 -6.69367 58.904
CA -1.68411 -17.8875 18.4869
CA -14.6193 15.2416 82.2799
CA -16.4107 8.19891 79.6815
CA -16.9597 -5.58443 18.6455
CA -20.915 -1.3062 40.701
CA 11.3189 -20.5746 41.9899
CA -16.1056 -22.8436 18.149
CA -6.64461 -5.13806 41.3877
CA -14.939 -21.5202 56.5567
CA -9.25872 26.3146 47.5869
CA -10.9648 -2.24897 76.6814
CA 0.326159 -11.6683 37.1247
CA 28.1046 -27.2226 41.264
CA -8.38812 21.5938 46.6533
CA -14.4372 -27.0524 43.4568
CA -20.5311 -12.8817 55.2319
CA -9.17511 7.46289 67.3929
CA -26.9158 -4.84946 54.6287
CA -19.4245 -24.3817 23.2011
CA -6.16745 5.86183 68.3607
CA -7.39791 4.61948 66.8271
CA 8.28246 -25.8843 38.0387
CA -10.8688 -19.3448 25.4196
CA 14.2178 -29.829 36.5588
CA -19.4077 3.81084 35.3575
CA -23.0273 -4.98759 53.9073
CA -21.6169 1.08589 35.7166
CA -6.83304 -21.8265 14.6971
CA -11.962 -23.1268 13.228
CA -9.65057 -37.1026 55.5261
CA -8.69209 -5.88759 70.8076
CA -7.4345 -11.5059 14.1143
CA -7.48782 12.6626 60.7475
CA -13.8641 16.2426 60.8666
CA -14.8892 20.261 82.469
CA -8.69766 5.26155 53.6229
CA -11.8187 6.71907 76.056
CA -22.4295 -12.2118 51.8989
CA -1.73375 9.92869 55.3762
CA -8.17349 -32.8477 43.0456
CA 4.17361 -14.2581 16.5711
CA -0.139431 -26.4419 43.2949
CA -8.51334 -27.0914 63.2126
CA -2.27613 -16.7066 15.9989
CA -5.95866 -18.0792 58.4692
CA -12.5715 18.5756 84.7463
CA 18.7031 -35.6732 41.6367
CA 31.0385 -23.7399 46.5427
CA 3.26807 -27.3641 53.5857
CA -0.763377 4.26129 77.2324
CA -5.60812 -28.868 38.1161
CA -16.0093 -13.5713 51.2245
CA -4.32708 -27.7715 41.6169
CA -8.47668 -5.51174 42.926
CA -15.5359 -24.9834 22.8067
CA -4.6065 -31.0851 45.403
CA -7.86438 -0.0475606 70.7798
CA 41.6312 -24.9481 38.8083
CA -4.62729 7.2638 57.8847
CA -5.37878 -22.1196 61.5648
CA -26.4831 -14.3047 59.5192
CA -16.5036 -8.99241 49.3464
CA -11.1214 5.53134 34.1404
CA -0.220206 -34.9827 52.7536
CA -12.8446 -10.5283 37.2407
CA -28.6058 -10.069 65.6621
CA -10.0109 -22.3783 55.6728
CA -5.6898 8.06195 69.7529
CA -15.1873 -8.76133 72.874
CA -9.46925 -7.81425 44.5814
CA -7.99723 -30.6529 61.3671
CA -12.7505 -5.68142 18.4554
CA -14.3648 -24.8632 45.7459
CA -6.50135 3.50676 42.7461
CA -12.6771 -9.84422 29.6345
CA -13.3405 -9.25324 74.8482
CA -13.1086 16.8208 82.3934
CA -2.77286 -30.3043 40.0039
CA 11.5604 -23.8285 46.3277
CA -13.7307 -3.29506 36.8026
CA 0.367532 -32.5413 46.305
CA 37.1495 -25.5619 44.2142
CA -15.4857 -12.7751 46.4726
CA -6.89451 -1.62481 43.1644
CA -27.4304 -2.63817 58.5789
CA -6.67585 3.89004 47.7749
CA -8.43952 -30.5529 42.2791
CA -18.5349 -26.7567 44.008
CA -6.9892 -21.5274 57.7692
CA 26.6191 -23.8514 41.7751
CA -12.7315 -2.55831 63.793
CA 17.1848 -22.6416 46.5049
CA -13.7367 -11.1804 43.2152
CA -9.53571 -42.068 41.9729
CA -18.543 0.216119 33.3556
CA -4.43605 3.31648 60.4448
CA 4.88154 -10.8436 16.9746
CA -20.7757 3.71066 54.7831
CA -8.50347 -6.70523 40.5476
CA -7.48627 14.1078 69.0149
CA -13.4425 -4.61069 73.5686
CA -16.796 -7.08158 51.334
CA -25.442 -3.53716 51.9374
CA -27.2333 -12.2765 68.1149
CA -4.3134 -9.95366 68.5466
CA -15.4298 0.954422 26.2807
CA -9.37266 -8.24744 20.7515
CA -17.742 -25.4029 27.1347
CA 6.21022 -14.9152 40.3024
CA -7.46225 -41.4765 41.0223
CA -9.55024 -16.5267 44.0596
CA -22.0134 -29.9986 51.3743
CA -8.81989 6.67159 73.8962
CA -20.7342 -0.833453 63.308
CA 1.09721 -15.6377 18.4999
CA -8.429 8.78451 61.4166
CA -3.30388 1.49378 45.357
CA 2.4399 -34.4958 48.7498
CA -4.53484 -6.92015 18.5676
