489

CA -3.01093 -26.2983 69.3549
CA 27.2856 -17.6056 45.9836
CA 2.57067 -10.3051 11.6576
CA -15.7021 -16.7905 72.9712
CA -3.18031 -37.4379 55.0989
CA -11.7168 8.26711 58.9186
CA -1.39968 -17.8032 56.826
CA -25.8167 -14.8867 43.0338
CA -1.40657 0.0875704 15.0789
CA -13.6766 -12.474 62.9481
CA -17.3382 10.1033 80.0143
CA -17.6408 -24.1893 14.4638
CA -4.79781 -34.6039 54.221
CA -25.0145 -7.65555 51.6155
CA -11.2766 -6.88188 35.9859
CA -15.5176 9.48614 78.9118
CA -11.3389 -2.33049 40.8598
CA -9.54001 -7.98735 37.2501
CA 0.856156 10.1416 56.8155
CA -9.03079 -26.8438 34.1175
CA -12.053 8.48678 40.7054
CA -21.6376 -14.8646 40.5562
CA -2.3473 -26.5821 39.845
CA -5.47325 -14.7762 28.2247
CA -6.48422 -6.83256 12.9865
CA -10.8163 0.33317 17.5643
CA -20.9897 -13.5613 37.5777
CA -4.65897 -17.4451 24.1719
CA -17.1532 -30.0276 46.8224
CA -13.6777 -34.1524 53.9913
CA -11.6679 -14.0833 43.9661
CA 21.2028 -25.1561 40.13
CA 3.59149 -20.4791 46.9
CA -10.8698 1.01851 70.2563
CA -32.6882 -3.88665 59.9984
CA -24.6037 -10.7309 52.8715
CA -23.2479 -7.00464 50.9304
CA -22.5144 -16.7809 37.5274
CA -4.04011 3.57058 58.0965
CA -11.9839 -34.3942 46.6949
CA 7.39857 -7.57799 65.1847
CA 11.565 -26.7461 45.9021
CA -16.629 -11.5087 57.5701
CA -9.65692 -1.04553 65.9583
CA -5.96065 4.23371 16.1644
CA -17.1623 -10.718 34.4535
CA -6.97294 9.66924 62.6231
CA -12.4898 -2.00604 21.6616
CA -17.4797 3.84875 73.799
CA -1.45996 -11.4819 11.2656
CA -14.8477 -13.6105 71.0078
CA -10.5824 -19.4931 52.6698
CA 1.25749 -32.7964 32.2044
CA 8.48578 -27.4166 39.7083
CA -26.3027 -11.1324 55.5809
CA -4.6552 -38.2943 57.7784
CA -2.87932 5.97432 59.7151
CA -12.1507 -14.3796 15.1321
CA -16.7095 -12.796 43.7065
CA -9.25894 -21.9489 65.2949
CA -14.7733 -15.3791 54.6486
CA -21.9978 -8.56386 57.0206
CA -16.0051 -5.63478 72.7899
CA -6.94539 -10.6658 46.0721
CA -27.2774 -3.85113 49.0241
CA -12.1166 -23.3189 66.9207
CA 25.6224 -18.9604 47.7879
CA -24.7155 -14.6564 65.3037
CA -9.74297 -35.1629 58.8365
CA -1.02888 -11.0639 21.4733
CA 5.04559 11.765 48.2206
CA -8.29975 -15.5373 16.0755
CA 8.84292 -13.4233 46.694
CA -16.1077 -8.22679 33.9705
CA -10.5253 -9.99106 26.8947
CA -3.97239 9.07431 50.4283
CA -13.7497 -2.45654 54.1727
CA -12.07 6.38342 76.7634
CA 8.11125 -17.1615 47.4863
CA -15.6109 -20.725 40.4649
CA -24.6206 -15.1498 69.3725
CA -25.7728 -2.98712 55.0212
CA 15.6758 -28.1372 36.9913
CA -1.384 -34.3411 53.2947
CA -13.8219 -13.7791 65.3453
CA -10.4607 -17.7156 39.5539
CA -24.5705 -8.99493 47.443
CA -10.3524 -14.0567 14.0463
CA -14.8976 8.54453 80.3394
CA 10.1775 -3.89355 64.4988
CA -4.85577 -11.0577 51.7068
CA -17.6456 -14.0926 45.3522
CA -32.0215 -9.94079 55.3468
CA -12.7264 -29.8361 35.9462
CA -26.9453 -6.32947 63.4759
CA -12.4692 8.14718 73.616
CA 17.1342 -27.9044 38.7246
CA -22.5275 -35.5983 49.3446
CA -11.5036 14.7613 82.8889
CA -8.49797 -25.4272 27.8782
CA -5.60851 10.0166 61.0563
CA -24.2723 -19.3111 66.1175
CA -17.1175 -7.85204 57.5042
CA 0.875243 -19.8542 42.1328
CA -1.47717 -23.9082 44.9867
CA -27.3521 -7.70051 62.2607
CA -23.591 -11.3461 62.5881
CA -1.87448 7.98911 59.1148
CA 9.37298 -13.225 50.685
CA -10.9576 -22.9246 16.0237
CA -11.1976 -5.4684 20.0243
CA -13.6898 -0.043564 61.1447
CA 25.3198 -22.4386 48.1105
CA -13.026 -3.166 61.6528
CA 14.3418 -15.4449 53.4043
CA -19.7199 -13.5379 46.1499
CA 21.2083 -22.2808 58.5132
CA 16.4853 -16.251 63.2749
CA 1.74526 14.9004 49.3216
CA 14.1724 -21.8734 66.6675
CA 26.5748 -27.5213 49.291
CA 30.8064 -21.9023 40.7051
CA 20.3413 -19.6639 60.398
CA -9.95947 -2.06745 76.3556
CA -6.87203 26.5047 50.8961
CA -13.7953 -10.404 45.6623
CA -13.0547 -31.5885 48.1508
CA -2.05721 24.6259 51.8482
CA -11.1836 -35.5637 55.2101
CA -20.2176 -5.31743 36.4892
CA 17.4744 -15.4466 61.5094
CA -12.5911 -45.1479 50.4688
CA 8.5094 -27.9553 36.5301
CA -12.1374 13.2171 86.9269
CA -6.55737 -39.5759 58.4161
CA 11.0891 -11.1517 59.2327
CA -20.2263 -18.3211 59.4874
CA -7.51226 -33.9278 62.5381
CA -10.8445 10.4745 81.2053
CA -14.9416 -18.8699 20.7929
CA 4.48802 -23.0026 33.2452
CA -1.59003 -5.15672 57.9794
CA -5.19843 -12.2495 20.1334
CA -10.6644 -11.3165 64.3021
CA -8.91606 -12.9052 67.0197
CA -11.3012 -25.6185 63.8048
CA 37.9546 -29.2761 45.8857
CA -18.3338 -17.8327 22.395
CA 0.287466 -5.12475 58.4576
CA -30.6272 0.447043 53.6733
CA 13.7277 -20.3225 51.304
CA -5.72384 9.24971 67.7437
CA -6.85734 -0.973553 36.389
CA -11.8535 -10.7907 68.474
CA 29.5206 -29.94 44.5215
CA -1.21708 -3.3758 52.8857
CA 6.27386 -30.7699 33.7565
CA -10.9481 -11.573 71.0949
CA -16.0305 -5.78562 15.1493
CA -28.0542 -4.26537 59.1717
CA 28.4741 -30.7747 38.0175
CA -0.344408 -33.8815 31.6942
CA -10.3227 17.3561 79.4815
CA -2.01704 -29.6911 36.3517
CA 1.43498 -6.72704 16.4636
CA 17.8322 -28.5185 36.331
CA -1.64434 -29.8838 40.3008
CA -25.3187 -8.5866 64.6497
CA -10.2944 -35.0489 43.5262
CA 10.296 -25.3832 45.2381
CA -0.144569 -20.5663 34.1015
CA -7.13574 -38.2393 60.8272
CA -1.82027 -31.7167 46.5356
CA -18.2958 -10.2488 30.5537
CA -22.6473 -5.50289 58.9922
CA -22.2367 -7.0635 48.3429
CA -10.8654 -32.228 56.2642
CA -35.4621 -14.4165 54.832
CA -1.53035 -36.4896 44.7345
CA -12.412 -9.54152 43.6991
CA -8.16651 -8.25675 62.4431
CA -25.2226 2.98064 62.0506
CA 14.2096 -11.1235 47.033
CA -13.14 12.9794 81.2284
CA -8.29332 11.3534 79.096
CA -8.00192 -7.15511 18.3718
CA -4.8147 -21.5701 60.9528
CA -15.9065 -12.8901 41.8175
CA -6.7746 -29.7514 55.1651
CA -16.7578 7.77356 76.5199
CA -21.4036 -17.9687 42.0075
CA -8.43484 -28.7177 53.5402
CA -11.033 10.8581 71.9877
CA -14.6265 9.74095 74.9701
CA -20.0178 -17.4756 43.5646
CA -27.1883 2.70324 59.5969
CA -5.26177 -28.8669 63.1424
CA -7.07746 -11.7645 36.9753
CA -23.7422 4.73447 61.6227
CA -7.81477 -13.7257 21.7015
CA -4.15281 -42.0313 37.881
CA -9.27097 5.63124 39.9639
CA 13.6554 -28.6962 37.6408
CA -0.00924692 -9.30282 61.6286
CA -9.63085 -5.58642 39.9884
CA -4.86219 -16.5515 30.8644
CA -28.8347 -9.55707 56.1997
CA -0.702686 -30.9527 35.5922
CA 5.29062 -9.55856 54.7455
CA -9.89476 -11.2424 24.5087
CA -11.23 -7.62073 14.9771
CA 2.30412 -10.1687 22.2455
CA -3.45928 -0.759815 38.3167
CA 29.7291 -27.5025 39.7539
CA -17.9405 6.64949 81.6206
CA 6.97592 -5.16674 65.2903
CA -13.7422 -22.0628 13.6009
CA -6.50355 -13.1575 47.8682
CA -0.142592 -28.3572 36.8674
CA -18.0198 -0.399622 78.225
CA -29.1359 -0.945985 65.3874
CA -1.84975 -10.62 9.192
CA 4.13387 8.64436 56.2137
CA -23.2401 -2.17888 40.323
CA -18.2076 -24.6713 60.5999
CA -7.29745 0.632849 16.974
CA -3.21347 13.0585 55.0426
CA -15.2499 0.102212 47.2775
CA 2.99376 -21.788 33.7019
CA -6.6862 -17.1261 39.2231
CA -10.1151 -23.0781 29.4737
CA -31.0441 -18.5462 47.1899
CA -22.4226 -5.386 41.0199
CA -18.2842 -3.76978 48.4518
CA -12.1863 -14.4796 65.7359
CA -3.88339 -15.4874 51.5981
CA 19.4793 -24.892 38.2985
CA -1.03869 -9.98965 23.0821
CA -3.54695 23.0342 48.6693
CA -14.9165 -7.23186 60.696
CA -18.0338 -0.496418 75.3995
CA -20.7367 3.77785 40.118
CA -26.5856 -6.88434 60.5275
CA 14.3234 -26.4718 50.4906
CA 16.6985 -19.1907 63.2135
CA -1.88223 -10.9105 25.2034
CA 29.0846 -25.7612 48.7935
CA -10.1765 -12.3757 47.8679
CA -16.3478 -1.54492 78.4847
CA -28.005 -0.450561 61.2179
CA -10.7391 5.41689 61.9678
CA -9.58578 -25.2957 55.2458
CA -11.0247 -21.6423 52.3058
CA -13.0811 -0.350779 56.7937
CA -6.42118 -2.58614 43.2151
CA 9.20723 -16.3294 49.5665
CA -4.81939 -13.7358 18.3448
CA -12.4808 4.3124 16.6413
CA -18.4444 -3.87769 65.6714
CA -29.9195 -1.21923 55.5237
CA -9.05258 -12.4396 44.8783
CA -2.18148 4.7058 56.113
CA 15.1658 -24.3397 39.6338
CA 29.9311 -28.9693 36.8619
CA 0.783063 -20.6859 49.9582
CA -12.0958 2.16137 15.9377
CA -29.4473 -2.96105 60.4865
CA -14.0435 -12.7841 23.6021
CA 11.2351 -22.5612 45.8305
CA -15.4061 -13.2787 21.8066
CA -1.42395 -36.6811 55.2799
CA 0.898084 10.9566 53.5055
CA -12.9121 0.967153 9.08488
CA -20.2557 -10.482 40.7645
CA -5.83034 -1.65177 37.8239
CA -13.2435 -8.8455 66.2669
CA -10.5433 -26.7221 43.6814
CA -17.86 -11.0605 48.33
CA 0.0839623 12.3947 52.1037
CA -18.4823 7.85755 78.4085
CA -9.7104 -26.7878 32.0259
CA 8.93826 -9.57032 66.0673
CA -17.4333 -4.19856 63.731
CA -3.65041 -27.6138 66.9448
CA -14.2485 -39.5522 53.3597
CA -3.8615 -18.9352 59.3609
CA -3.82948 3.79901 52.7975
CA 0.109342 -8.7105 12.3301
CA 16.3688 -14.8407 53.8067
CA 26.0424 -27.6909 40.2705
CA -15.1617 -15.091 22.2087
CA -4.9379 -33.9731 40.0748
CA -22.8327 -3.70463 59.8358
CA -27.7786 4.9997 60.5167
CA 5.44196 8.38342 47.3116
CA -6.31758 -16.4108 57.764
CA -13.0075 -19.3579 16.2396
CA -30.0745 -14.5925 46.6271
CA -11.629 -2.87244 72.1077
CA -15.3235 -40.0119 47.4549
CA -8.07375 -3.26293 36.1054
CA -15.0985 -1.65195 16.9048
CA -13.2378 1.68921 60.7947
CA -4.32247 5.66591 33.3983
CA -10.8892 -2.00762 6.36796
CA -8.31198 -4.76889 17.4728
CA -22.7036 -8.38064 42.6272
CA -0.104975 -39.035 52.5146
CA -1.2288 -27.724 63.2652
CA -14.5898 -43.3947 47.9749
CA -12.115 -4.01049 39.257
CA -8.62865 -0.606879 40.2198
CA -25.8281 -6.64858 54.544
CA -2.84421 22.7889 45.5813
CA 19.0398 -15.21 57.1036
CA -1.06654 7.74052 56.3515
CA 1.93806 -30.2164 54.0959
CA 3.06451 -9.76943 63.6915
CA -8.23303 -15.403 35.2674
CA -13.2885 -13.633 38.5087
CA -15.1765 0.690554 56.6683
CA -17.9949 -5.26261 10.7833
CA -11.1637 2.18354 66.5961
CA 18.973 -25.3731 40.0604
CA 12.0627 -24.6326 45.7186
CA -14.6225 -20.7326 66.4408
CA 0.851318 -33.3025 46.7457
CA -12.6014 -42.9295 50.6685
CA -10.5953 -25.5857 17.1311
CA -10.4975 -24.892 42.9516
CA -16.4734 -8.81903 63.7462
CA -14.8196 -1.61237 74.483
CA 12.9956 -9.21502 44.7528
CA -19.473 -20.1483 60.8872
CA -0.449655 -7.61836 22.9924
CA -5.40243 -15.771 16.6985
CA -11.068 -25.8368 67.2017
CA -29.0579 -9.28621 59.8875
CA 11.6972 -21.0353 50.0149
CA 16.1393 -13.1684 60.0378
CA -12.8603 -43.8381 55.0292
CA -0.403375 -11.7929 19.5513
CA 2.41037 -8.35451 41.1632
CA 21.3146 -24.8704 42.7981
CA -17.5501 -40.8513 45.2712
CA -23.5265 -7.49592 60.1539
CA 32.1272 -23.0521 47.2506
CA 20.0718 -15.5838 62.4878
CA -12.2492 -43.5969 52.4234
CA -32.7435 0.741196 58.9951
CA 28.2766 -18.1379 47.7601
CA -9.36594 2.45925 39.1832
CA -13.1388 -45.9053 53.6825
CA -10.4226 -20.3516 66.3087
CA -10.0609 14.2014 77.5178
CA -17.8081 -14.6391 57.2323
CA -1.36113 -29.6625 52.0846
CA 9.66084 -8.22726 40.3501
CA -15.8167 -6.94569 64.2851
CA 17.8401 -29.0815 40.9742
CA -12.9814 -22.0684 44.5977
CA -4.72324 -17.5873 35.2731
CA -2.30649 -16.2686 40.5547
CA 0.852584 16.4431 48.8502
CA -15.3581 -5.40685 47.2718
CA -5.69281 -40.4512 63.0468
CA 31.444 -21.2801 45.3251
CA -4.02439 -1.02361 50.9333
CA -20.5179 -33.2758 45.1758
CA -2.5346 -34.8109 58.7927
CA -20.5118 -11.2104 47.8076
CA 12.9549 -11.3929 58.5293
CA -7.46947 -17.2293 58.9544
CA -22.2203 -15.3979 42.5801
CA -2.15291 -19.2309 55.9298
CA 6.34329 13.0372 53.6893
CA -1.77531 -44.6188 64.3759
CA -3.49759 -8.85499 22.579
CA -30.5232 2.29731 62.7016
CA -9.58892 -24.9895 53.1568
CA 26.8913 -26.4354 39.0227
CA 30.9928 -17.5817 45.1064
CA 17.4534 -24.6329 37.444
CA -18.4845 -34.666 47.6244
CA 6.50873 -3.24392 64.0425
CA -9.27564 10.5672 61.2096
CA -13.812 -14.8843 61.8615
CA -19.9333 -12.4154 36.5379
CA -10.1394 -23.3489 50.6878
CA -10.8538 -26.5244 40.8202
CA -22.1535 -17.3803 29.8908
CA -7.195 -13.6778 40.1105
CA -8.05324 -16.6404 31.3503
CA -13.7732 -5.73821 66.1513
CA -19.7741 -19.1186 38.1099
CA -4.45375 -31.6315 54.0399
CA 0.9108 -7.94102 20.875
CA -15.4915 10.8968 76.4967
CA 14.7653 -18.0343 58.5661
CA -15.1871 -10.2965 63.7949
CA -10.0791 4.40584 38.6365
CA -17.5494 -8.30088 36.7922
CA -9.23922 -24.3696 19.4697
CA -1.45646 23.8395 49.762
CA -5.27547 0.428224 36.0733
CA -4.09417 -29.627 35.3122
CA -7.65692 -24.3018 54.2814
CA -11.1602 -1.48416 47.9455
CA -6.52685 5.08828 13.3859
CA -15.2484 -7.44234 45.0225
CA -14.9367 14.1444 80.0474
CA 4.05939 17.0076 51.404
CA -8.04119 -18.6797 59.9935
CA -11.7903 12.6355 75.5439
CA -28.5419 -9.89993 68.7507
CA 5.583 -26.0775 37.7009
CA -2.91389 20.57 48.8741
CA -12.0941 -3.23201 18.7391
CA -7.6794 4.4773 15.6665
CA -11.232 22.1175 46.2345
CA -9.56202 -10.0311 15.2636
CA -23.5357 -14.5928 38.6329
CA 4.35122 8.65467 45.5637
CA -19.6889 -1.20491 39.8332
CA -7.98768 -24.5665 62.6329
CA 12.7417 -13.9337 47.7863
CA -16.3339 -9.15035 41.6303
CA -10.1145 26.3991 47.5044
CA -7.81447 -32.7477 66.0933
CA 15.5642 -21.6931 59.3937
CA -13.458 -4.39896 37.8153
CA -33.3613 -0.936876 55.8958
CA -9.209 -12.3765 33.8231
CA -15.2673 -40.4541 44.88
CA -9.27502 29.1641 51.2349
CA 2.70645 10.5085 50.9612
CA -8.11673 -11.3134 49.7329
CA -14.6289 7.93197 78.431
CA 14.1578 -30.26 46.1799
CA -5.69167 -13.1755 51.4491
CA 4.77685 -29.5969 47.6155
CA -17.8248 -11.2746 41.4238
CA -15.7525 -26.3182 54.3099
CA -13.7692 -23.1992 12.1647
CA -2.65077 12.1428 49.4824
CA -2.47046 -3.65005 50.8993
CA -13.6859 -13.1241 15.2797
CA 1.22049 17.4439 46.5641
CA -8.20752 -26.2071 48.4179
CA -8.34949 -12.6813 26.1703
CA -12.9425 24.3644 49.6924
CA -12.2624 -0.252779 13.4588
CA 14.4857 -21.6796 54.4155
CA -15.705 7.41671 81.8067
CA -3.10257 -38.8066 61.9943
CA -15.2036 -14.5498 25.1743
CA 5.57056 13.3087 42.8662
CA 22.8927 -13.7225 60.5878
CA -9.45922 -38.5307 48.0356
CA -16.934 -11.3495 37.3591
CA -5.24238 1.3364 16.3126
CA -2.35849 -40.917 43.0443
CA 21.0916 -10.4356 63.1519
CA -1.95213 -7.68686 61.1792
CA -13.1893 -28.6105 38.7478
CA -11.4992 -41.0541 52.7682
CA -5.74715 -43.918 62.0634
CA -12.8913 -38.3316 43.0347
CA -5.93018 -32.4536 43.7359
CA -12.0757 -39.8407 39.5775
CA -0.146937 -11.7227 25.689
CA 30.8314 -24.6137 39.8657
CA 2.68051 -29.0726 33.6851
CA -10.6425 -24.5106 28.2959
CA -4.36266 -13.4843 15.4701
CA -14.1664 -22.4494 10.0043
CA -8.18875 -29.8903 64.1809
CA 25.728 -8.38643 57.0173
CA 1.24603 -10.9409 67.8567
CA -15.8249 -2.05097 61.2257
CA -15.2614 -45.4114 48.7108
CA -1.50216 -5.10478 59.814
CA -12.4986 9.70929 82.9583
CA 4.12182 -9.41146 12.5852
CA -17.3361 -17.2938 59.2943
CA -27.0023 -3.38007 57.1941
CA -26.2619 -10.4588 65.0012
CA -11.8438 -20.9731 62.2741
CA 7.32844 -8.45341 40.0379
