489

CA -9.06686 -24.1917 49.2161
CA -15.8444 -14.946 62.1038
CA -11.7226 -33.1034 49.5642
CA 1.23031 -23.7095 47.7518
CA 1.54297 -45.0068 71.0671
CA -12.2265 -41.5919 49.4468
CA -18.3558 -21.3077 46.3548
CA -8.11521 -19.6072 65.8731
CA -7.77229 -9.2518 42.8459
CA 0.705846 -0.798523 53.3
CA -12.3874 -26.3681 55.0453
CA -15.2815 3.01656 21.4174
CA -7.43529 -26.6005 60.0585
CA 4.33336 -14.0644 18.3099
CA -2.52522 -1.98788 71.125
CA -38.9876 -1.82925 70.9214
CA -16.0265 -24.9354 50.2965
CA -17.2867 -3.67591 59.6277
CA -5.89197 -15.2776 54.0212
CA -2.51323 -20.9416 57.6658
CA -20.369 -15.1761 49.1951
CA -3.02344 -24.4148 53.3917
CA 1.00803 -10.1144 8.73092
CA -6.18328 -10.371 45.1787
CA 3.49111 -21.7088 44.571
CA -3.28032 -30.7767 40.1017
CA -2.94392 -26.6416 40.1528
CA -15.9668 2.56911 77.5378
CA -0.961512 -49.5441 67.1901
CA -7.17171 -37.1288 65.2695
CA 0.306705 -12.7885 17.4243
CA 21.2028 -25.1561 40.13
CA -2.24417 -43.2585 42.5141
CA -7.37445 -22.7503 49.0757
CA 28.1461 -20.728 44.545
CA -12.9301 6.66292 38.4784
CA -5.89905 -6.10911 42.5095
CA -32.3006 -3.90999 59.8252
CA -18.3334 -30.808 62.0069
CA -15.1671 -42.8076 50.5456
CA -0.214029 -15.7576 29.9644
CA -16.5282 -5.22575 57.0121
CA -0.591465 -19.9487 39.7166
CA -5.32254 -11.4486 18.9303
CA -17.9447 -6.18302 38.5969
CA -4.4218 -20.2503 53.0941
CA -9.64219 -17.1818 56.9417
CA 23.4271 -20.8349 66.2949
CA -13.234 -21.8201 25.719
CA -3.95714 -11.9504 14.9046
CA -9.44924 -44.6445 65.1987
CA -5.82473 -17.7271 52.4353
CA -16.1389 -45.2078 52.0131
CA -7.62747 -23.8252 46.2246
CA 11.0462 -24.7971 42.2906
CA -26.355 -5.74328 41.6209
CA -2.63603 -9.96877 32.8629
CA -3.43066 -19.7922 54.9988
CA -4.69287 -34.8226 61.643
CA -15.7879 -14.9143 59.3716
CA -15.6075 -19.7389 21.0565
CA -15.3763 11.1324 36.8042
CA 27.4539 -27.6656 48.0951
CA -2.70715 -37.1698 51.4805
CA 1.04851 -0.794259 60.0598
CA -4.92048 -23.6538 53.9537
CA 2.05002 -17.3829 33.9092
CA -2.36306 -13.7022 49.8752
CA -19.0505 -5.95342 34.2779
CA -15.1998 11.0485 57.9905
CA -9.49098 -17.3968 29.7502
CA -7.42091 -28.6351 39.4107
CA 10.3618 2.897 70.6074
CA -16.1497 -32.2088 45.1941
CA -17.2341 -2.72334 38.1301
CA -0.521649 -32.2931 44.2767
CA 14.8132 -16.7134 45.8956
CA -29.8575 -0.599221 56.4276
CA -10.3405 -14.9212 35.6568
CA 0.524132 -34.0089 46.8659
CA -3.48792 -44.316 62.1002
CA -12.6151 -43.997 43.5286
CA -7.4514 -8.24081 17.1898
CA -23.3996 -17.4761 56.129
CA -6.64919 -13.1337 59.9814
CA -19.4756 -48.2256 51.6513
CA -28.4566 3.37847 62.3299
CA -13.4994 6.36692 40.9134
CA 2.56234 -2.45353 63.7106
CA -20.7618 -20.6682 57.5833
CA 2.66018 -19.8855 46.1537
CA -6.87521 10.4503 57.5469
CA -13.544 7.00424 76.596
CA -9.47999 -9.99388 17.1187
CA -27.3325 5.07481 57.9687
CA -13.8542 -47.1904 39.2794
CA -19.2871 0.469162 77.0638
CA 3.43424 -0.583537 64.9777
CA 2.99009 6.27206 67.6474
CA -18.6116 -7.24724 55.4007
CA 27.0381 -23.026 46.9296
CA -11.1387 6.55554 37.0879
CA -31.4618 -9.45592 62.389
CA -23.2869 -9.9622 45.3643
CA -15.4272 -0.274506 14.5538
CA -8.53543 -21.6195 46.2579
CA -3.74462 10.6125 60.1155
CA -11.3358 -19.7126 25.6124
CA -9.01988 -11.9714 63.5195
CA 12.7148 -12.792 57.334
CA -16.1216 -21.9599 43.98
CA -2.52042 -7.40032 19.4599
CA -35.5696 -6.53137 58.4211
CA -2.11229 -13.015 24.5196
CA 14.4059 -11.7295 52.1999
CA -0.718544 -11.4252 13.4911
CA -6.19169 -25.7114 50.7759
CA -12.1135 -25.2986 51.3406
CA 0.957311 -31.3763 38.1572
CA 5.96713 1.13428 68.563
CA 10.7223 -12.045 53.3009
CA -5.37958 17.3342 49.6063
CA -1.85966 -35.5226 40.9045
CA -1.52309 -41.6704 38.1924
CA 2.3484 3.59083 55.7322
CA -18.0759 0.464192 56.9759
CA 0.407565 -26.588 55.0171
CA -15.3655 5.63238 79.0733
CA 0.750214 5.62784 63.2865
CA 7.90372 -23.9206 48.1326
CA -36.1623 -3.40959 69.5253
CA 18.4811 -20.0468 64.0825
CA -38.7424 2.2572 70.9514
CA -16.351 -14.6254 22.2642
CA 11.9526 -19.5455 60.3321
CA 4.62043 -27.6145 49.8709
CA -3.72157 2.09205 13.1805
CA -37.9663 -2.3969 65.5457
CA -31.6813 -7.08742 66.0249
CA -9.62652 3.03256 61.9248
CA -18.4102 -28.6828 54.6772
CA -18.9321 -20.6742 44.2674
CA -6.19974 -11.686 23.882
CA -13.5351 -13.8427 52.1402
CA -9.65272 -29.8852 61.7833
CA -12.8899 -29.6663 47.3376
CA -11.6297 -27.1193 64.0648
CA -17.9366 -30.1449 49.6478
CA -22.4368 -16.5307 42.8892
CA -0.669065 -15.0778 17.9116
CA 0.124565 -10.1441 29.4096
CA 10.5791 -3.27385 64.9887
CA 20.8573 -22.8224 63.037
CA 0.291183 -16.6702 18.7941
CA -23.319 7.59507 57.2926
CA 3.53673 -17.9959 44.8912
CA -12.6585 -14.6307 62.0137
CA 8.7261 1.0703 65.8818
CA -0.732866 3.00376 64.707
CA -22.7146 0.289255 53.8017
CA 17.7849 -21.7505 56.4957
CA -14.1162 -32.3394 71.8382
CA -16.0007 -28.9128 67.2491
CA -19.6771 -8.50691 57.0501
CA -4.96805 -0.874134 14.0535
CA -12.2326 -15.2217 36.6546
CA -5.67747 -10.9005 13.4185
CA -6.96196 -39.3145 66.6618
CA -2.5173 -4.83163 66.8959
CA 1.00734 -45.458 67.4809
CA -4.92854 -21.5768 51.2309
CA 23.0757 -16.9563 60.3155
CA 12.1615 -19.7102 36.997
CA -22.0778 -1.4512 54.1454
CA -13.1717 8.63448 37.5275
CA -19.4369 -33.4208 50.8902
CA 0.297675 -47.5687 67.3437
CA -38.4815 -4.45763 62.2034
CA 8.73021 1.04124 69.2067
CA -15.0454 -4.41156 10.8869
CA -18.2618 -0.59362 78.942
CA 11.1234 2.32609 68.1096
CA -21.1538 -7.45403 52.4505
CA -0.352673 -18.6039 44.7021
CA -39.1437 2.34896 68.6856
CA -17.19 -43.6116 38.8819
CA -4.8147 -21.5701 60.9528
CA -11.499 -25.0053 22.7826
CA -5.6447 -5.63891 56.3412
CA -12.8434 3.50461 10.8823
CA -8.54546 8.1539 41.9983
CA -14.9243 -7.54918 34.4174
CA -16.4319 -23.0526 54.5033
CA -1.66417 17.1525 48.8827
CA 3.90381 -16.0193 43.719
CA -1.11682 -39.1125 52.3974
CA 12.2245 -23.798 50.1964
CA -3.19999 -3.71303 62.1725
CA -9.99791 -22.0532 24.0243
CA 24.1268 -16.3275 53.3489
CA -18.6564 -13.0616 49.0125
CA 3.37206 -4.21789 39.0399
CA 13.6554 -28.6962 37.6408
CA -10.1176 6.175 74.8157
CA -3.31561 -16.5005 53.7394
CA -9.87931 -18.7609 50.0127
CA -14.7845 -23.6616 26.6147
CA 11.9387 -21.6374 45.7335
CA -13.2295 -24.4095 24.9126
CA -37.446 -1.45117 68.2223
CA -0.699905 -40.2957 40.0696
CA 2.81554 10.8607 65.1152
CA -1.71927 -35.7849 63.6017
CA 11.6576 -15.3536 43.9237
CA 16.4004 -23.4382 42.6769
CA -14.6365 -3.51035 65.7734
CA -17.1222 -25.4539 14.2469
CA -26.9745 -9.05361 64.0518
CA -19.836 -18.0702 53.5317
CA -36.4617 1.23988 65.6252
CA -3.66033 -2.38096 42.3366
CA -0.476117 8.81618 65.5001
CA 1.05527 -3.41808 39.5191
CA -6.45585 6.87697 57.8141
CA -6.11911 -17.0431 44.9643
CA -9.76601 -24.2716 58.0367
CA -4.57098 -9.55639 15.6998
CA -11.8214 -10.1985 62.4671
CA -0.715254 -46.1226 64.3081
CA -9.62453 -33.5093 46.4147
CA -14.7947 -25.7249 57.4057
CA -14.2774 -12.2481 35.1646
CA -1.80788 -15.4778 49.6551
CA -15.0448 -23.4553 39.9233
CA 0.555791 14.1708 52.1032
CA -0.30809 14.1116 55.1529
CA -20.0637 -23.9014 15.9189
CA 0.0486242 2.21196 54.9535
CA 12.3171 -20.8332 52.4076
CA -0.963551 -47.9399 65.3074
CA -4.55205 -36.8579 64.8773
CA -18.3984 -33.6258 56.7005
CA -33.8083 1.70306 61.3751
CA -17.7471 0.925295 74.9969
CA -15.0423 -15.1308 18.7623
CA -35.2645 -4.34689 60.8502
CA 5.42579 -2.24217 52.9949
CA 6.82495 -27.401 53.4056
CA -18.2203 6.49298 44.9561
CA -16.5603 5.00017 43.509
CA -1.38412 10.6834 50.2346
CA -4.14413 10.3304 62.7642
CA -0.639397 13.8157 57.7136
CA -13.0811 -0.350779 56.7937
CA -0.993698 -8.5622 17.2093
CA 0.346823 -19.3332 35.289
CA -9.63064 -21.4512 50.5941
CA -21.2037 -18.7977 54.6113
CA 27.8551 -13.4467 54.9446
CA 11.1054 -25.6713 52.028
CA 1.04857 -49.7311 70.0045
CA -16.8973 -24.872 53.1781
CA -13.6169 -12.4752 21.1632
CA -16.225 -7.11408 62.1805
CA -3.41624 -4.82623 59.8728
CA -8.36013 -19.7507 62.759
CA -15.7414 -11.4626 56.5459
CA -16.8409 -11.5735 17.0728
CA -4.59878 -30.7411 38.2765
CA 0.642754 6.44109 65.9667
CA -2.58092 -14.5644 33.5044
CA -10.3379 -13.46 17.3107
CA -9.26092 -26.9272 67.3156
CA -41.3237 -4.17456 66.9623
CA -2.90217 -37.6544 45.6229
CA -22.0313 -6.67965 42.9965
CA -2.18402 -38.3207 48.2283
CA -11.0359 -16.5797 65.5417
CA -3.21189 -22.3663 53.2629
CA -9.16132 -37.6472 39.093
CA -13.1948 2.14686 77.8153
CA -5.60588 4.50389 57.5094
CA 0.0139281 -11.346 34.103
CA -38.2528 -7.99148 58.8042
CA -10.0391 -6.43138 50.7196
CA -14.1539 -19.3906 49.8077
CA -3.75888 -18.4268 51.2478
CA -7.2242 -27.6517 56.6002
CA 3.90574 -5.88594 16.7361
CA 26.0424 -27.6909 40.2705
CA -17.9294 8.37754 57.7745
CA -17.9796 -2.62937 9.46197
CA -9.10223 -6.20556 24.9773
CA 12.1129 -22.6163 36.9314
CA -18.9169 -23.1508 44.2121
CA -11.3435 -28.5597 50.6665
CA 13.4468 -22.8916 60.2776
CA -15.8043 -7.95461 20.5768
CA -13.4487 -14.6262 59.126
CA -22.1228 10.5343 56.9323
CA 1.46997 7.65837 67.8722
CA 3.24886 18.3649 51.0757
CA -4.43353 -22.3169 46.3842
CA -9.99736 -33.4938 66.225
CA -14.1718 -29.3204 50.3735
CA -1.20702 -38.3464 50.4546
CA 5.05122 6.33156 55.394
CA -17.8702 -25.7892 17.0735
CA -2.07883 -1.94907 37.901
CA -16.56 -27.2804 46.6938
CA -6.93516 5.10194 74.3268
CA -8.62865 -0.606879 40.2198
CA 0.876955 -5.45971 39.3324
CA -7.50416 -13.8316 17.6429
CA -18.0164 -3.48944 13.7141
CA -16.6502 9.39858 38.2182
CA -44.4609 -1.41642 71.0373
CA -36.0802 -2.72936 56.681
CA -6.50261 -8.77545 39.6942
CA -6.91842 4.01214 38.4766
CA -4.02478 -29.9218 63.077
CA -27.8294 1.01794 60.6139
CA -30.1399 1.73756 60.8553
CA -3.77636 11.1033 65.0401
CA -7.95222 -23.445 54.1116
CA 18.4026 -23.5449 61.6388
CA 4.64131 2.40997 63.4024
CA -12.6014 -42.9295 50.6685
CA -4.73797 12.3884 49.0986
CA 11.6567 -26.2789 41.2388
CA -16.0253 -27.5811 58.0939
CA -13.4204 3.30643 15.95
CA -31.293 -8.45146 58.5731
CA -2.1838 6.29177 70.9744
CA -9.22797 -19.4129 29.7181
CA -11.7832 -9.00633 51.3814
CA 12.3232 -22.3144 53.5714
CA 4.66891 -3.85968 52.0733
CA -15.6581 5.19082 21.2936
CA -23.9667 -16.7078 61.0192
CA 8.62007 -1.97301 51.0946
CA -2.3992 18.7057 47.4919
CA -6.0508 -21.8389 22.1829
CA 13.0309 3.32033 68.3421
CA 15.3337 -22.4397 60.6711
CA -10.8985 -9.27604 53.4527
CA -7.38844 13.7575 66.496
CA -4.52687 6.53935 71.2882
CA -3.68438 -22.2221 59.3539
CA 22.6647 -15.3164 58.3445
CA -16.7471 2.4065 19.5293
CA 22.2606 -20.3702 60.7541
CA -25.3534 -0.412721 50.7642
CA -2.41158 -16.9968 64.7168
CA 2.3404 -5.0658 14.0567
CA -9.38007 -36.2156 68.585
CA -7.24371 -41.8359 63.0648
CA 0.460501 -28.7812 58.9586
CA -7.8886 -2.31616 15.6336
CA -1.95998 -8.06493 60.2165
CA -14.3833 -23.5102 52.4299
CA -13.0646 -27.5467 47.5229
CA 21.6487 -14.4432 55.8303
CA -3.82382 -17.2652 69.7096
CA 23.3942 -14.5201 56.6081
CA -8.30219 3.91891 12.9074
CA 2.7835 -2.23565 38.6685
CA -7.84446 -40.5655 64.7546
CA -17.973 -33.927 62.5237
CA -1.44858 -19.0778 64.9662
CA -17.4719 -2.34701 57.3374
CA 10.2307 -24.9628 56.8363
CA 6.45602 -0.259848 69.7039
CA 5.44688 -16.1848 42.2724
CA 1.89561 -35.3045 49.4769
CA -17.8029 0.533479 19.5049
CA -1.77531 -44.6188 64.3759
CA -2.82825 -33.7577 45.5819
CA -14.5976 11.4355 61.0762
CA -2.26875 -17.8071 68.4813
CA -5.7631 -24.2362 28.7852
CA -2.81095 -31.2775 42.6382
CA 17.4534 -24.6329 37.444
CA -9.89738 -28.4104 48.3384
CA 24.8244 -24.0852 58.3862
CA -9.27564 10.5672 61.2096
CA -28.3569 6.49276 63.0272
CA -12.4076 -22.8883 27.8706
CA 16.6468 -10.2728 47.8105
CA 1.40768 -18.0594 46.0598
CA -11.747 -32.3477 67.0892
CA -4.35986 9.40031 72.5963
CA -37.7684 -8.61168 56.0052
CA -14.7404 -43.105 48.6905
CA -8.50831 -15.7018 63.5388
CA -44.7819 -5.40592 67.0397
CA -9.09722 -24.2592 19.5289
CA -22.4228 -35.4083 51.2694
CA -11.917 -27.9761 42.9744
CA 0.303675 -20.3427 46.1843
CA -15.0999 -16.9962 22.0889
CA -2.86101 -18.4296 70.8569
CA -14.8931 -21.2462 50.9867
CA -4.39641 -41.5593 41.1295
CA -0.518531 4.1999 63.1341
CA -14.0579 -8.35603 18.0572
CA 7.98702 -24.901 43.634
CA -8.64073 -11.9029 49.3453
CA -7.01298 -37.5658 69.7054
CA -7.77032 -10.7727 55.8186
CA -2.23291 -9.38968 19.1733
CA -9.90032 -27.4801 50.6489
CA 9.24269 -28.1521 50.6293
CA 16.81 -25.899 40.2252
CA -5.22055 -13.8353 44.0113
CA -6.29751 -37.5572 46.5439
CA -22.787 -18.7678 42.9227
CA -8.00207 -20.5472 49.7341
CA -14.614 0.332724 11.8623
CA -38.3595 -1.76763 73.1132
CA -16.3277 -4.04164 19.7668
CA -13.5537 -24.8134 15.4138
CA -1.79248 -32.0835 59.802
CA -11.9294 -29.6265 59.406
CA -25.356 -8.15467 40.5163
CA 0.0284724 -49.8229 65.3038
CA -6.55666 -42.9569 64.8804
CA 20.5145 -23.8673 36.5501
CA 1.78939 5.20664 61.2661
CA -13.7671 -5.42433 65.3963
CA 24.4852 -19.6117 68.1443
CA -11.999 1.03726 65.3705
CA -19.7005 -18.5783 41.6831
CA -7.08845 -12.7649 54.9742
CA 12.8917 -26.3919 45.6961
CA -10.9805 -22.7356 45.4271
CA -17.2938 6.55188 46.5882
CA -3.16141 -6.65617 60.2964
CA -14.517 -11.2774 36.9518
CA -2.60405 -26.078 51.378
CA -9.70022 -7.67932 15.9497
CA -16.7814 -12.0197 21.0812
CA -5.89491 -22.1481 53.6725
CA -7.61184 2.92738 71.3457
CA -4.07193 4.2194 60.0633
CA -9.86313 -38.917 48.1223
CA -11.5262 -15.1152 52.9682
CA -25.9902 -14.1508 44.8399
CA -13.6207 -18.4766 62.2741
CA 14.0617 0.308868 69.9207
CA -18.7374 -11.2385 19.409
CA -15.1028 -20.353 55.4899
CA -7.98091 11.6204 64.0098
CA 3.72145 -8.90813 17.7489
CA -19.2526 -11.0809 46.9055
CA -7.88952 -6.43379 21.9139
CA 1.35272 -20.8475 41.0956
CA -13.6062 -24.2936 39.1969
CA -14.7282 -44.8236 36.9217
CA 7.78717 -26.8398 51.7448
CA -2.24758 -22.8993 46.1181
CA -15.4824 -29.6485 64.8829
CA 9.58793 -22.9176 50.8118
CA -9.66101 -21.4998 17.0803
CA 4.44414 -20.5001 46.8158
CA -19.5789 -2.68444 57.335
CA 16.2556 -15.1991 54.3317
CA 3.58845 1.33832 54.8998
CA -10.3814 -22.4999 21.0853
CA -11.2636 -13.5619 36.7782
CA -0.814626 -23.8325 49.3112
CA -11.4086 -19.0031 33.5976
CA 29.253 -25.4593 44.374
CA -9.9001 -12.6304 37.6759
CA -6.16716 -42.0081 41.7957
CA -0.203107 -0.265659 54.8879
CA -0.93871 18.653 45.8882
CA 9.48158 4.38695 64.8904
CA 6.2824 8.26882 60.2769
CA 5.39039 7.92131 58.4468
CA 8.98178 -2.73504 54.8716
CA -18.4089 3.52882 21.7385
CA 22.6341 -19.243 62.8884
CA 24.7995 -31.3196 47.6657
CA -1.63702 -30.6824 37.1103
CA -10.3476 1.96535 65.6302
CA -17.1265 -34.5707 52.1137
CA -6.29993 -38.0657 42.8451
CA -6.42351 -12.4275 15.0148
