489

CA -18.6794 5.6225 48.6265
CA -26.1869 -2.36668 53.3012
CA 7.37417 6.82514 63.6465
CA 1.23031 -23.7095 47.7518
CA -21.5276 0.103373 79.7893
CA -3.82342 -36.4702 43.3806
CA -12.6125 6.09165 79.0718
CA -2.06386 -13.7217 27.8953
CA -15.733 -14.4019 64.4239
CA 0.705846 -0.798523 53.3
CA 3.53416 -4.07561 42.4555
CA -2.91046 -22.305 50.2535
CA -5.04685 -33.2637 62.5138
CA 4.33336 -14.0644 18.3099
CA 2.27187 -22.7148 44.4081
CA -38.9876 -1.82925 70.9214
CA -16.0265 -24.9354 50.2965
CA 0.362231 -24.0087 45.4877
CA 0.374298 4.46782 57.6936
CA -0.136126 -36.7955 47.8373
CA -10.4661 -34.8627 69.4218
CA -12.2206 -23.8862 37.0461
CA -14.2934 3.07333 74.3168
CA -6.18328 -10.371 45.1787
CA -16.9567 -24.154 40.569
CA 2.6928 -0.860494 55.0857
CA -2.94392 -26.6416 40.1528
CA -8.18716 -24.5034 62.3247
CA -2.53127 -24.0617 50.3969
CA -11.0924 -45.1344 52.7113
CA 0.306705 -12.7885 17.4243
CA 21.2028 -25.1561 40.13
CA -2.24417 -43.2585 42.5141
CA -9.41114 16.8954 62.5642
CA 29.9045 -26.0528 50.9667
CA -8.90855 -29.2348 63.7281
CA -19.9229 -4.35737 17.5385
CA -10.3605 -10.9108 34.2719
CA -18.3334 -30.808 62.0069
CA -14.6252 10.0041 38.2098
CA -0.214029 -15.7576 29.9644
CA -16.5282 -5.22575 57.0121
CA -0.591465 -19.9487 39.7166
CA -1.5672 -26.5987 42.705
CA -22.7224 -2.11001 52.3212
CA -4.4218 -20.2503 53.0941
CA -9.64219 -17.1818 56.9417
CA -1.14466 -1.39194 50.2847
CA -7.52907 4.20935 67.6043
CA -3.95714 -11.9504 14.9046
CA -24.5065 1.3367 75.6718
CA -5.82473 -17.7271 52.4353
CA 4.02603 8.70382 62.4693
CA -11.2845 14.3067 62.5266
CA -4.48534 -21.361 50.2149
CA -24.969 6.29515 63.6208
CA -2.63603 -9.96877 32.8629
CA -15.0583 -19.9818 46.555
CA -6.4787 -2.56241 65.4406
CA -15.7879 -14.9143 59.3716
CA -15.6075 -19.7389 21.0565
CA -16.7395 -21.1996 24.8163
CA 27.4539 -27.6656 48.0951
CA 24.7625 -15.6825 55.2232
CA 5.85027 -29.4428 47.3877
CA 4.86104 -19.3055 46.6141
CA 2.05002 -17.3829 33.9092
CA -4.57068 -12.0136 43.8915
CA -3.81228 -28.1861 58.0136
CA -3.80007 12.1641 58.7945
CA -12.8046 -16.5884 21.7438
CA -1.02378 16.2617 44.2394
CA -1.67712 -24.9112 61.1059
CA -33.9229 -3.53853 63.2555
CA -6.22135 -16.7361 65.4386
CA -4.08959 -8.94232 45.7892
CA -9.16071 -13.4412 21.2425
CA -14.0203 -13.6244 47.4786
CA -14.2921 -30.5911 48.6373
CA 14.1139 0.426059 66.0142
CA -3.48792 -44.316 62.1002
CA -12.6151 -43.997 43.5286
CA -7.4514 -8.24081 17.1898
CA -23.3996 -17.4761 56.129
CA 8.1444 2.64476 60.137
CA -14.249 0.164703 11.0745
CA 6.98274 -32.3799 57.0808
CA -13.4994 6.36692 40.9134
CA -17.4593 -40.8 50.384
CA -20.7618 -20.6682 57.5833
CA -11.6024 -26.2401 62.3062
CA -6.87521 10.4503 57.5469
CA -13.544 7.00424 76.596
CA -10.9247 -13.3975 66.1442
CA -27.3325 5.07481 57.9687
CA -13.8542 -47.1904 39.2794
CA 3.43632 -25.6823 47.2011
CA 4.60127 -6.18221 19.315
CA 24.8173 -13.876 60.588
CA 24.2859 -18.5179 53.4325
CA 27.0381 -23.026 46.9296
CA -11.7115 -9.85202 18.6964
CA -2.15082 -19.4255 46.1598
CA -6.179 4.15751 40.2909
CA -15.0103 5.64848 20.709
CA -3.30931 -31.9938 38.3841
CA -16.9816 -19.6786 47.042
CA -11.3358 -19.7126 25.6124
CA -26.4062 -2.69919 51.4587
CA -13.1068 -22.5084 41.4591
CA -16.1216 -21.9599 43.98
CA -13.0667 -25.6583 36.4188
CA 12.2353 -3.71228 69.7374
CA -5.33525 -26.3282 35.9616
CA 3.6171 4.38708 58.6912
CA -0.718544 -11.4252 13.4911
CA -8.47648 -5.07294 50.4749
CA -12.1135 -25.2986 51.3406
CA 0.957311 -31.3763 38.1572
CA -19.0781 -5.66048 36.7626
CA -12.0657 -6.47733 51.3151
CA -5.37958 17.3342 49.6063
CA -1.85966 -35.5226 40.9045
CA -1.52309 -41.6704 38.1924
CA -12.0867 -22.8831 59.5682
CA -12.1866 -14.0983 19.0976
CA 0.202639 1.53524 64.2218
CA -15.3655 5.63238 79.0733
CA -22.9656 8.06941 59.3021
CA 7.90372 -23.9206 48.1326
CA -14.9584 -16.7623 44.0479
CA -12.6275 -17.4576 50.0184
CA -38.7424 2.2572 70.9514
CA -16.351 -14.6254 22.2642
CA -11.3709 -18.8089 65.5655
CA 4.62043 -27.6145 49.8709
CA -3.72157 2.09205 13.1805
CA -37.9663 -2.3969 65.5457
CA -11.0371 4.17691 65.5701
CA -9.62652 3.03256 61.9248
CA -9.31458 -10.1072 37.3699
CA 9.76605 -1.9875 67.2424
CA -16.1331 -25.2456 44.72
CA -0.138532 3.01996 62.9668
CA -12.0011 -46.0069 45.7412
CA -6.77734 -9.96002 18.3064
CA -11.6297 -27.1193 64.0648
CA -17.9366 -30.1449 49.6478
CA -2.63503 -20.8186 51.3936
CA -0.669065 -15.0778 17.9116
CA 0.124565 -10.1441 29.4096
CA 7.25763 7.19753 61.5089
CA 20.8573 -22.8224 63.037
CA 3.31145 -11.5184 16.3767
CA -23.319 7.59507 57.2926
CA 3.53673 -17.9959 44.8912
CA -4.3592 -23.6078 44.967
CA 8.7261 1.0703 65.8818
CA 23.737 -21.2385 66.7843
CA -10.6174 -12.7415 22.2526
CA -29.8824 7.05452 60.1226
CA 17.3578 -19.8571 61.2553
CA -16.0007 -28.9128 67.2491
CA 11.1208 -22.8424 65.6633
CA -4.96805 -0.874134 14.0535
CA 11.72 -17.7691 62.8426
CA 13.8068 -21.4569 65.5614
CA -5.80544 -4.88803 54.6686
CA -13.0153 -14.2514 65.9577
CA -12.1993 5.55353 7.563
CA -4.46502 -42.8122 44.7724
CA -29.454 -9.1958 60.9158
CA -14.2341 -18.4322 23.1411
CA -22.0778 -1.4512 54.1454
CA -13.1717 8.63448 37.5275
CA 7.19394 -2.74327 67.9832
CA 0.297675 -47.5687 67.3437
CA -38.4815 -4.45763 62.2034
CA 21.4268 -23.8919 42.4293
CA -15.0454 -4.41156 10.8869
CA -18.2618 -0.59362 78.942
CA -12.0167 2.48468 66.5934
CA -19.2257 -20.9179 53.9336
CA -0.352673 -18.6039 44.7021
CA -15.0116 -35.5017 58.4377
CA -17.19 -43.6116 38.8819
CA 12.925 -13.3541 52.2623
CA -8.97274 -26.2315 59.3448
CA -1.50147 -16.5431 39.8038
CA -12.8434 3.50461 10.8823
CA -11.6248 11.3886 58.3049
CA -14.9243 -7.54918 34.4174
CA -16.4319 -23.0526 54.5033
CA -8.35927 -40.9648 54.4734
CA -21.8374 3.19045 78.1307
CA 11.0294 -13.6839 54.2061
CA 12.2245 -23.798 50.1964
CA -19.118 -18.1205 23.731
CA -9.99791 -22.0532 24.0243
CA 6.80766 -41.6804 67.6004
CA -1.28424 -10.603 49.6239
CA 25.1279 -16.8327 58.5224
CA -4.64761 -39.3614 62.3395
CA -4.5571 -8.6391 40.7396
CA -4.60242 -23.6356 72.1157
CA -9.11375 12.696 56.6456
CA 3.32796 -24.6372 48.6733
CA -25.2929 1.57876 51.1913
CA -13.2295 -24.4095 24.9126
CA -16.7949 -28.2582 50.9137
CA -0.699905 -40.2957 40.0696
CA -19.3666 -21.6416 51.7184
CA -1.76902 -13.4588 20.7427
CA -10.3482 -34.5895 65.3362
CA 16.4004 -23.4382 42.6769
CA -11.3459 -33.3523 60.4522
CA 12.7128 -26.7458 49.3702
CA -26.9745 -9.05361 64.0518
CA -19.836 -18.0702 53.5317
CA -18.8299 4.69391 44.853
CA -3.66033 -2.38096 42.3366
CA -4.40499 -47.1793 62.1937
CA 1.05527 -3.41808 39.5191
CA -6.45585 6.87697 57.8141
CA -6.11911 -17.0431 44.9643
CA -9.76601 -24.2716 58.0367
CA -41.1813 0.777604 73.1049
CA -15.9184 -12.2308 60.3979
CA -0.715254 -46.1226 64.3081
CA -4.05965 -2.81785 51.9928
CA -14.7947 -25.7249 57.4057
CA -14.2774 -12.2481 35.1646
CA 2.81442 -28.9999 41.794
CA -15.0448 -23.4553 39.9233
CA 0.555791 14.1708 52.1032
CA 15.0012 -24.3372 46.8299
CA 1.04412 8.38916 53.3657
CA -2.40711 -5.95768 43.0181
CA 12.3171 -20.8332 52.4076
CA -0.995164 -24.9549 49.2452
CA -8.82446 -8.73714 25.9452
CA -18.7532 5.27627 42.7442
CA 6.14527 1.02545 52.9297
CA -16.9526 -15.7017 60.5397
CA -15.0423 -15.1308 18.7623
CA 5.6497 -9.88947 19.6331
CA 2.63076 -46.5382 66.2682
CA -2.05206 -33.5915 61.8485
CA -30.421 -0.953689 59.6824
CA 3.11547 8.0617 57.87
CA -1.38412 10.6834 50.2346
CA -16.5446 -6.42565 36.9721
CA -0.639397 13.8157 57.7136
CA 10.025 -4.49357 54.8534
CA -10.8971 -10.9389 37.9683
CA 9.62553 -31.4492 56.5933
CA -9.63064 -21.4512 50.5941
CA -16.8772 -22.2996 47.764
CA -0.979853 7.98481 68.7762
CA 11.1054 -25.6713 52.028
CA -1.64792 -24.5943 72.6824
CA -8.73983 -17.1609 65.7961
CA -14.764 -8.91499 61.62
CA -0.989317 -16.6742 46.2668
CA -18.8035 0.853793 77.6825
CA 16.722 -23.8327 50.7229
CA -5.12613 5.68531 60.5498
CA -11.6339 -15.508 47.8627
CA -4.59878 -30.7411 38.2765
CA 9.1914 -30.0645 55.1655
CA -2.40848 -30.7584 60.5311
CA -15.2785 -22.1674 56.3176
CA -9.26092 -26.9272 67.3156
CA 1.91851 4.28937 59.6222
CA -18.9615 1.78907 73.4919
CA -22.0313 -6.67965 42.9965
CA -2.18402 -38.3207 48.2283
CA -11.0359 -16.5797 65.5417
CA -3.21189 -22.3663 53.2629
CA -2.83688 -10.936 45.6887
CA 13.5265 -25.2679 47.37
CA 9.69871 -31.9924 58.6929
CA -22.6528 -10.9422 57.5998
CA -14.7373 7.48347 65.5328
CA 0.650163 11.2431 56.1483
CA -14.1539 -19.3906 49.8077
CA -3.75888 -18.4268 51.2478
CA 5.78078 9.83696 57.2243
CA 0.582662 -21.8569 32.2963
CA 26.0424 -27.6909 40.2705
CA 2.28596 -27.3344 39.7444
CA -3.42349 -38.6248 54.5197
CA -17.6411 -10.1593 36.6216
CA 12.1129 -22.6163 36.9314
CA -18.9169 -23.1508 44.2121
CA 0.972903 -19.9279 34.0283
CA 13.4468 -22.8916 60.2776
CA -13.7265 -31.9543 40.8625
CA -13.4487 -14.6262 59.126
CA -22.1228 10.5343 56.9323
CA 1.46997 7.65837 67.8722
CA -15.28 -21.5361 63.9409
CA -4.43353 -22.3169 46.3842
CA -4.58418 -11.0208 42.256
CA -5.51954 -43.6854 46.2813
CA -1.20702 -38.3464 50.4546
CA 5.05122 6.33156 55.394
CA -14.9648 -5.38669 14.847
CA 6.46339 4.75565 58.5794
CA -16.56 -27.2804 46.6938
CA 8.71989 1.97873 63.0311
CA -5.94859 -16.4284 54.1041
CA -7.53816 -47.675 69.0761
CA 2.07575 -14.305 32.353
CA 4.69078 -9.76467 21.593
CA -18.8527 -3.2642 8.27142
CA -6.49961 -27.6487 48.9091
CA 22.897 -19.9997 71.6182
CA -1.4454 -32.2306 56.2937
CA -6.91842 4.01214 38.4766
CA -21.3276 -6.41274 59.7163
CA -27.8294 1.01794 60.6139
CA -30.1399 1.73756 60.8553
CA 15.0009 7.61248 66.8779
CA -6.58966 -27.8897 27.2742
CA -11.1561 -19.0721 38.2618
CA -28.5411 1.50915 54.9132
CA -5.48097 -29.8051 35.9424
CA -4.73797 12.3884 49.0986
CA -16.0738 -17.7263 62.1602
CA -0.882187 -9.12385 45.7256
CA -13.4204 3.30643 15.95
CA -31.293 -8.45146 58.5731
CA -2.1838 6.29177 70.9744
CA -9.22797 -19.4129 29.7181
CA -21.4862 -11.0337 45.219
CA -16.4511 6.98436 42.161
CA 4.66891 -3.85968 52.0733
CA -0.340401 -32.5433 54.7412
CA -23.9667 -16.7078 61.0192
CA -15.723 -19.2128 44.6758
CA -7.65948 -14.2043 20.3624
CA 11.0036 -15.842 52.2327
CA -15.7614 10.3948 40.5472
CA -1.59932 -12.2186 19.257
CA -10.8985 -9.27604 53.4527
CA -7.38844 13.7575 66.496
CA -4.85089 -22.1183 73.1536
CA -3.68438 -22.2221 59.3539
CA 4.94151 7.27395 67.8735
CA -16.7471 2.4065 19.5293
CA -14.0783 -19.7741 64.9909
CA -25.3534 -0.412721 50.7642
CA -2.41158 -16.9968 64.7168
CA -15.112 2.33534 40.3215
CA -17.7377 -26.5463 45.4787
CA 0.580173 -23.2067 27.9511
CA -8.92851 -4.63099 41.4788
CA -7.8886 -2.31616 15.6336
CA -13.6344 -33.8266 58.9736
CA -14.3833 -23.5102 52.4299
CA -2.13118 13.2326 50.623
CA 21.6487 -14.4432 55.8303
CA -3.82382 -17.2652 69.7096
CA -11.2204 -41.2231 48.8284
CA -25.5069 0.468669 64.3914
CA -19.2385 -18.9784 50.9859
CA -7.84446 -40.5655 64.7546
CA -17.973 -33.927 62.5237
CA -18.2224 -17.7308 45.219
CA -17.4719 -2.34701 57.3374
CA -6.69897 -21.6764 29.4288
CA -8.47133 -10.6769 30.2938
CA -6.10092 5.64082 70.2835
CA -25.8628 -9.4633 43.4253
CA -17.8029 0.533479 19.5049
CA -1.77531 -44.6188 64.3759
CA -13.2793 -21.5987 49.4336
CA -7.83763 -44.6077 46.1532
CA -21.5194 2.14245 44.2466
CA -5.7631 -24.2362 28.7852
CA 17.6685 -22.7531 63.2168
CA 17.4534 -24.6329 37.444
CA -9.89738 -28.4104 48.3384
CA 24.8244 -24.0852 58.3862
CA -16.335 -18.4079 19.8776
CA -10.6916 -17.2721 46.4004
CA -12.4076 -22.8883 27.8706
CA 16.6468 -10.2728 47.8105
CA 1.40768 -18.0594 46.0598
CA -11.747 -32.3477 67.0892
CA -12.6962 -17.2437 63.3033
CA -37.7684 -8.61168 56.0052
CA -14.7404 -43.105 48.6905
CA -5.3534 -20.6575 71.3166
CA 0.170775 15.7638 48.4892
CA -9.09722 -24.2592 19.5289
CA -22.4228 -35.4083 51.2694
CA -11.917 -27.9761 42.9744
CA 0.303675 -20.3427 46.1843
CA -1.93147 -44.3557 45.738
CA -11.0894 -21.0514 27.7227
CA -14.8931 -21.2462 50.9867
CA -4.39641 -41.5593 41.1295
CA -1.10822 1.38946 66.2746
CA -14.0579 -8.35603 18.0572
CA -2.90453 -12.5189 30.1517
CA -8.64073 -11.9029 49.3453
CA -0.867661 -7.12302 40.0681
CA -5.15723 -42.3464 61.3281
CA -9.05574 -40.277 51.6802
CA -9.90032 -27.4801 50.6489
CA -6.60477 -20.1441 70.0481
CA -12.0187 1.2828 68.5017
CA -9.75256 -41.362 47.395
CA -6.29751 -37.5572 46.5439
CA 6.18104 -23.1037 53.973
CA -8.43392 -18.9468 52.4096
CA 22.0375 -21.5363 69.69
CA -38.3595 -1.76763 73.1132
CA -6.15388 12.717 45.5968
CA -13.5537 -24.8134 15.4138
CA -9.60172 7.4389 39.5519
CA -24.3637 -2.36269 53.2144
CA -4.86626 -13.0733 41.9545
CA -3.00596 -19.984 41.4686
CA -14.5717 -43.6641 44.1508
CA -4.83447 -1.14366 67.2063
CA 1.78939 5.20664 61.2661
CA -13.7671 -5.42433 65.3963
CA 24.4852 -19.6117 68.1443
CA -11.999 1.03726 65.3705
CA 10.6749 5.39995 67.3598
CA 13.0387 -20.2843 63.1092
CA 12.8917 -26.3919 45.6961
CA -10.9805 -22.7356 45.4271
CA -18.8332 -18.7926 43.8873
CA -4.1862 -38.9121 38.9649
CA -8.62613 6.98885 68.7927
CA -23.824 -10.8078 61.9009
CA -9.66485 -38.0507 64.6231
CA -16.7814 -12.0197 21.0812
CA -6.59486 -11.9177 31.6967
CA -7.61184 2.92738 71.3457
CA -4.05833 -24.0984 59.4864
CA -9.86313 -38.917 48.1223
CA -11.5262 -15.1152 52.9682
CA -25.9902 -14.1508 44.8399
CA -15.7111 -4.54056 16.8165
CA 14.0617 0.308868 69.9207
CA -21.1875 -8.34333 17.1277
CA -0.458696 7.51884 71.1329
CA -7.98091 11.6204 64.0098
CA 3.72145 -8.90813 17.7489
CA -2.22526 -9.31307 35.158
CA -7.97722 -48.4166 65.3365
CA -16.209 -1.55724 61.8264
CA -18.2436 -21.471 22.2981
CA 1.89631 1.30777 67.1998
CA 15.83 -18.4596 61.2382
CA -17.2299 6.03659 39.3561
CA -15.4824 -29.6485 64.8829
CA 9.58793 -22.9176 50.8118
CA -9.66101 -21.4998 17.0803
CA -14.0566 1.075 64.4604
CA -14.1256 -29.0422 53.5063
CA 16.2556 -15.1991 54.3317
CA -18.9239 -8.30806 39.3031
CA -21.3026 -5.74933 51.2113
CA -11.2636 -13.5619 36.7782
CA 4.41636 -12.799 19.8553
CA -11.4086 -19.0031 33.5976
CA 29.253 -25.4593 44.374
CA -9.9001 -12.6304 37.6759
CA 6.66035 -30.5076 50.6953
CA -0.203107 -0.265659 54.8879
CA -0.93871 18.653 45.8882
CA -1.46961 -17.6112 41.3069
CA 6.2824 8.26882 60.2769
CA -10.4531 -0.72919 39.9421
CA 8.98178 -2.73504 54.8716
CA -7.92856 -21.247 69.1258
CA 22.6341 -19.243 62.8884
CA 24.7995 -31.3196 47.6657
CA -9.79054 3.98715 75.8931
CA -2.76365 -2.13018 66.3033
CA -17.1265 -34.5707 52.1137
CA -6.29993 -38.0657 42.8451
CA -9.24683 -2.84122 42.9236
