489

CA 10.1076 -24.7853 45.6946
CA -23.032 -4.05543 70.4365
CA -12.1608 -12.665 25.6966
CA -21.2328 -12.1638 20.2233
CA -11.1001 -18.4172 52.8741
CA 7.19989 15.9079 52.4533
CA -12.3873 -13.8485 18.8602
CA -1.78146 -20.978 31.9925
CA -3.50946 -24.7939 32.3656
CA 38.8845 -10.9725 38.3469
CA 36.2299 20.4541 47.8991
CA 8.46465 -24.3623 47.6965
CA 30.0963 17.8299 56.0534
CA -23.6553 -14.5805 22.9726
CA 1.45194 -29.2535 40.1144
CA 6.36503 -18.5329 29.5947
CA -23.0349 0.356814 33.9585
CA 28.7648 -11.7368 45.744
CA -17.5765 9.55823 50.1838
CA 26.3027 -12.531 47.5291
CA -10.0892 -10.8659 15.5261
CA -13.8118 18.0665 77.9577
CA -19.8902 -16.3674 19.2716
CA -30.3457 -11.6309 68.4414
CA -9.58404 15.1702 46.6663
CA -13.1043 -2.46322 40.8159
CA 23.144 -21.9844 34.963
CA 8.17836 19.0658 54.705
CA -11.4122 -24.3775 27.7736
CA 5.23628 -21.9029 36.3228
CA 32.1889 19.8832 57.1785
CA -7.4219 -22.7435 34.5827
CA 26.2297 -14.8407 58.784
CA -16.4621 -4.16239 33.7829
CA 28.2328 -9.86642 45.7079
CA -6.66179 -19.0008 33.0266
CA -4.04198 -15.6225 28.5851
CA -6.67655 4.60325 23.9095
CA -9.05658 -23.7868 33.8224
CA -25.3862 -1.45879 31.6923
CA -15.3014 -22.6907 29.3556
CA -20.7126 -24.3899 40.6076
CA 9.28801 20.1804 57.8223
CA 0.916687 -25.2865 37.6337
CA -1.28703 3.86319 76.455
CA 27.336 11.5946 59.6013
CA -16.766 -14.4915 17.3581
CA -8.46897 -16.4571 15.0682
CA 10.9005 -17.8507 44.3312
CA 9.52124 12.3408 71.1796
CA -16.9713 -17.3011 28.3225
CA 8.11447 34.5904 44.8847
CA 24.9278 -26.4362 37.7561
CA -16.6578 -10.5421 59.4505
CA -9.46591 -18.9649 19.1697
CA 0.341168 -9.99158 27.4035
CA -1.73616 5.80098 24.2455
CA -19.7842 -18.9752 15.7595
CA -33.3617 -12.5577 35.971
CA -20.3544 -9.33794 41.1034
CA 1.30102 12.776 75.0497
CA 27.3035 -9.55468 48.1674
CA 35.5427 15.5939 53.5841
CA -21.6953 -9.05175 43.6133
CA -28.1056 -5.49997 31.2274
CA -16.6913 10.0714 29.4441
CA -19.1449 9.44289 38.0434
CA 6.87036 -21.8333 73.9224
CA 32.8474 14.6009 47.0384
CA 31.119 12.3507 59.0788
CA 31.0688 16.8911 54.8278
CA -8.40731 -14.9827 20.126
CA -5.97609 -22.691 31.0044
CA 13.6379 4.87077 26.2816
CA -5.40514 -22.9387 24.1305
CA 3.30955 -10.7192 73.333
CA -19.3057 -11.8535 18.6213
CA 2.09715 38.8483 62.6341
CA -17.8727 -7.73844 64.9439
CA -0.352012 -20.4694 29.9694
CA -26.8818 -3.17856 38.8873
CA -20.1755 6.38417 32.18
CA -21.5511 -3.14154 41.2094
CA 22.8598 -12.9095 49.3769
CA -24.6071 -7.47888 37.307
CA -13.9071 -20.7185 37.7742
CA -10.8506 -7.27848 26.942
CA -19.4082 -14.6252 20.9103
CA -9.80772 -20.1447 34.4875
CA 42.5028 -15.575 32.0766
CA -6.28311 6.18534 12.9077
CA -17.0466 11.9374 30.4511
CA -3.62214 12.8226 48.6394
CA 16.0295 -22.0191 64.3099
CA -14.1248 -9.7699 57.5464
CA -17.3697 -7.1783 36.4932
CA -8.4714 -24.6273 24.5925
CA -14.5962 7.51151 49.7248
CA 23.8544 -10.3915 45.3223
CA -25.148 -12.1815 45.4397
CA -16.5268 4.84121 51.2002
CA 7.48346 14.3823 41.0069
CA -7.11541 12.8628 47.6368
CA -2.83035 -12.3723 78.1217
CA -18.3028 -18.5257 21.8691
CA 11.1841 2.64903 56.2045
CA -7.26842 -19.6744 29.6966
CA -12.018 -6.17446 31.2841
CA 6.93761 0.960549 66.4582
CA 14.5082 17.475 48.6987
CA -23.7667 -12.9054 34.4422
CA 34.9594 7.86116 37.4495
CA 9.79625 -18.1429 40.3505
CA -18.4095 8.24229 47.4934
CA 7.33216 -21.191 45.4113
CA -30.7017 -16.5092 55.9559
CA 18.1831 18.6298 52.3664
CA 1.75443 10.2741 49.9982
CA -9.92674 -25.6738 27.2501
CA 38.3053 -16.0334 29.4286
CA -6.44244 9.48379 48.8752
CA -16.7065 -15.2801 20.6994
CA 0.820141 -14.8607 63.7361
CA -20.5904 -7.52684 60.8029
CA -2.83012 -34.0389 42.7559
CA 27.0765 15.084 46.0602
CA -14.7358 -25.5689 41.1864
CA 7.45516 -16.6332 43.0712
CA -18.3062 -6.05283 60.8288
CA 5.91624 -29.9638 46.5738
CA -8.37476 -11.7954 22.5573
CA -8.45876 -27.3439 50.3024
CA 12.9237 0.516829 38.3042
CA -9.28045 -5.00494 18.4637
CA -12.1554 -20.8267 13.8746
CA -5.05749 -26.6821 71.3296
CA -5.17082 0.0151492 17.4501
CA -14.8693 -16.3952 54.4739
CA -14.0057 3.36913 50.7211
CA -9.52075 -30.7068 48.8335
CA 24.5921 -26.0658 34.3488
CA 15.0017 -23.7669 68.1406
CA 9.86868 -1.10226 28.3739
CA -11.4701 -19.255 21.9206
CA 14.1927 -11.3016 72.9451
CA -29.543 8.99198 40.7768
CA -18.8562 -11.4919 33.5318
CA -23.1728 -5.5509 55.6133
CA 1.53785 -14.9761 61.266
CA 36.3655 14.2724 57.3157
CA 27.873 13.5948 51.8031
CA 10.1271 16.7883 70.4511
CA -11.695 -22.6702 35.5982
CA -28.7723 -7.76644 56.277
CA -19.5744 -1.70855 35.2151
CA 1.79621 -27.5469 39.3901
CA -10.1067 -23.4905 58.4813
CA -12.5822 7.15452 70.3256
CA -5.03225 -27.9563 52.689
CA -12.4503 -33.8591 48.5714
CA 9.17986 -0.794978 73.0021
CA -18.5627 -5.19556 64.9774
CA 22.8965 -7.63411 39.3742
CA -12.3892 -12.505 27.5969
CA -3.6481 -3.83648 40.9738
CA 10.2331 14.7159 74.5782
CA 6.85069 4.97294 21.445
CA 2.43272 -14.8218 73.53
CA -5.54641 16.0689 24.2952
CA -19.8218 -21.5408 29.0337
CA 39.9414 -14.9988 31.0578
CA -3.61967 27.6847 57.5258
CA 27.3076 10.9296 44.1532
CA 13.5132 17.7505 46.816
CA 12.6912 3.37093 24.9582
CA 34.117 19.7515 57.7435
CA -16.2076 -23.1968 32.8274
CA -10.2247 -12.6949 51.9706
CA -3.92068 -38.913 33.6434
CA -1.9849 -20.0004 34.2259
CA -15.9562 7.55001 33.1029
CA -5.06032 24.7685 75.3843
CA -4.37487 -34.3793 34.1653
CA -18.6475 -7.68223 42.9135
CA -20.2559 -4.41098 37.3472
CA 7.6872 14.0321 70.6047
CA -13.3657 2.09454 52.8765
CA -20.9939 -22.6455 33.4818
CA -17.3265 7.40229 36.7168
CA -26.6999 -13.8064 19.1748
CA -7.97617 6.57556 74.3298
CA 14.0321 -10.5737 63.4265
CA 14.654 18.3643 57.3539
CA 9.40173 -0.995232 37.3928
CA -21.6305 -5.99559 70.3948
CA 24.3396 -1.32987 47.5305
CA 8.64284 -20.1589 62.1408
CA -8.42072 -18.6719 16.5628
CA 35.2224 14.1823 51.4372
CA -1.12839 -10.4179 25.0124
CA -0.612603 11.4608 51.0888
CA 29.3512 -10.3228 47.3645
CA -9.85714 -24.5174 38.2857
CA 41.967 -13.5958 33.0855
CA -19.174 6.65753 48.1869
CA -15.2793 -18.4359 42.6499
CA -10.6388 -19.5428 36.0332
CA -8.91054 -28.43 38.9088
CA -11.8748 -5.96214 44.3545
CA 15.7219 4.38951 26.4949
CA -21.6815 -19.7406 30.9938
CA 23.7748 -2.85221 43.9793
CA -8.95184 2.15019 52.8179
CA -21.8629 -2.89055 55.321
CA -1.20392 -22.8419 63.4307
CA -15.1017 11.2178 42.0577
CA 6.16211 -26.2517 43.4852
CA -19.2163 -7.07977 34.7183
CA 17.3463 19.4895 49.6939
CA -7.81614 -20.8281 39.2015
CA -10.613 -8.9711 50.213
CA 9.78007 -17.5226 71.1588
CA -8.99865 6.37084 72.7982
CA -6.63262 -3.25661 27.6831
CA -20.7411 -23.5027 17.8112
CA 15.4623 -10.5301 74.3349
CA -7.30002 -2.61202 25.2621
CA -28.5807 -0.440756 36.1008
CA -5.37468 6.0703 11.0624
CA -1.45472 7.58083 79.4786
CA -14.791 6.93677 31.0043
CA 0.903358 -7.72711 84.3462
CA -27.2456 -14.1695 47.7566
CA -6.85459 3.66446 70.5667
CA -19.1103 -1.72383 55.6419
CA 2.18516 -28.9563 44.5299
CA -15.2857 18.7323 62.1492
CA 8.29161 32.1887 43.9334
CA -25.4725 -9.05035 73.1598
CA -4.05544 20.4746 20.531
CA -6.50257 -3.49237 23.5399
CA 10.6815 18.4117 58.7949
CA -24.0345 -7.05958 67.6663
CA 20.5362 9.77124 88.5657
CA -15.9553 -5.39021 32.5504
CA -22.2102 -8.87263 45.5462
CA 8.14524 -17.8502 39.6191
CA 13.0973 -25.6124 35.8629
CA 8.14497 17.7741 38.3557
CA -8.31286 7.50208 10.9859
CA -3.33708 10.9932 51.1636
CA 40.0398 -18.6122 31.5415
CA 5.19907 4.24542 25.4242
CA -20.7891 -8.31525 32.2393
CA 10.6479 31.8809 41.6467
CA 3.66726 7.6118 80.7358
CA 25.138 13.8191 67.7268
CA -8.18436 -28.7538 26.1744
CA -1.74598 -19.379 66.5327
CA -19.3078 2.69245 48.151
CA -8.52787 5.26091 71.1418
CA 35.5239 11.8156 50.0562
CA -16.2077 -3.7665 31.1298
CA 9.36664 35.2054 41.4241
CA -22.8142 -1.12241 29.5451
CA -5.91316 -28.8699 33.3548
CA 35.2194 8.90768 30.8655
CA 10.2912 -9.96672 22.0301
CA 6.65402 17.1786 39.8054
CA 10.9154 13.0739 61.5531
CA -5.18982 -2.21285 41.4323
CA -3.19825 -4.34211 30.4461
CA 10.0791 2.95203 22.5916
CA 41.8107 -12.1553 40.6866
CA -23.4608 -20.9853 33.0416
CA -17.6285 -9.71344 55.9213
CA -8.08979 -17.9284 26.7149
CA -25.2472 -10.9811 60.2681
CA -17.2956 -20.9626 44.755
CA -30.8757 -12.5753 36.9168
CA 18.0836 -2.11748 52.4928
CA 8.35833 -5.07435 29.953
CA -11.1825 -9.84444 34.1692
CA -11.8618 6.50932 66.1242
CA 2.90307 -25.2475 41.0442
CA 10.7086 17.7654 38.1264
CA -3.82416 1.94532 25.6451
CA 33.3927 11.5808 50.0798
CA 1.64764 -21.7988 29.4412
CA -7.86245 26.3003 56.2791
CA -28.8097 -14.4812 37.3101
CA 3.6684 -12.5666 80.525
CA -14.7659 -15.0484 37.9142
CA -7.44064 -19.4912 36.6087
CA 10.3911 -20.5026 59.5674
CA -15.6992 2.92223 49.5934
CA -5.83271 4.5683 14.745
CA -9.49955 -7.70875 17.5944
CA 11.6445 6.35787 25.2315
CA 8.3891 2.8486 28.419
CA 16.3853 -26.7976 35.2702
CA -2.62227 -7.87308 26.8616
CA -18.9329 -22.9064 20.7066
CA -14.773 9.47149 48.0788
CA -25.5715 -14.6613 25.2387
CA -18.9489 -24.2371 46.5934
CA 28.9227 10.2876 59.3563
CA -26.1658 -9.18249 39.9697
CA -9.44073 -12.5691 18.5826
CA 25.8807 -2.93248 48.0845
CA -2.07323 -18.7645 32.3845
CA 20.6378 -7.42744 39.8593
CA -11.4983 -32.2947 49.2889
CA -11.5907 -31.3685 55.5861
CA 5.1913 -23.5248 31.4993
CA -11.1776 -10.6188 53.0962
CA 3.11318 10.2446 77.3767
CA -10.3774 20.2537 79.5369
CA 21.2539 14.0792 64.1044
CA -17.0222 -18.8645 16.938
CA -29.6536 -11.2674 36.344
CA -18.9595 -9.86625 31.9145
CA 14.9027 -8.99464 41.4366
CA 19.4517 21.4952 54.8859
CA -13.9732 -21.8657 26.0679
CA 9.18067 -26.5166 47.947
CA 1.84354 -20.8696 64.0826
CA -18.1126 -9.44992 58.5298
CA -2.33594 -24.0408 36.5366
CA -19.8982 -10.1382 39.1605
CA -3.47884 21.1389 53.8357
CA -17.5758 19.4146 61.2634
CA -1.74549 -28.8163 33.8189
CA -14.179 -15.5691 13.5044
CA -3.04422 23.7291 74.179
CA -15.0457 -5.76167 49.3081
CA -7.70341 -31.2876 38.9646
CA -19.8597 -22.5208 40.0389
CA 17.9971 -3.31807 43.208
CA 7.42846 -26.6229 39.4807
CA -5.27859 -12.2888 21.5506
CA -11.2496 -4.56782 33.0725
CA -9.68768 13.7441 68.0188
CA -23.3885 -16.9912 31.5223
CA -7.68703 5.5367 68.4118
CA 27.5982 12.8489 67.7172
CA 13.5448 -29.2107 36.6138
CA -8.65552 -4.58581 43.6885
CA 7.19187 16.562 45.9977
CA 0.648583 -33.6073 41.1329
CA -24.064 -2.04184 56.5676
CA 14.3256 -10.5232 66.133
CA 4.09139 -6.86109 84.3973
CA -9.77874 -25.0189 61.3938
CA 25.761 11.0172 49.8369
CA -16.8322 -12.2452 23.0323
CA -7.44276 -32.8906 41.6937
CA 0.4394 -11.3668 76.5107
CA -23.6908 -8.81598 58.0771
CA -0.592458 5.44915 21.9708
CA -27.7232 -10.3096 71.0786
CA -10.6951 -30.1258 50.7629
CA 12.7023 8.21496 68.1025
CA 1.49183 13.7721 80.9047
CA -19.4229 4.49386 33.1735
CA -10.7687 -35.0318 55.8052
CA 21.7338 15.0205 68.4817
CA -13.6575 -14.8307 17.5244
CA -7.79134 -23.9101 38.8053
CA -9.40384 -21.0445 15.2331
CA 34.5736 10.2188 50.9078
CA -10.2784 -29.4761 47.5325
CA -13.8947 -4.906 37.7811
CA -9.9889 -39.8063 48.3818
CA -14.0735 4.98078 49.5169
CA 8.68693 -18.1981 74.8771
CA 2.44012 14.3018 73.1095
CA -30.2427 -9.58716 57.1701
CA 30.5195 12.4969 55.5519
CA -9.19 -9.04503 52.772
CA -18.6789 -2.89777 30.5768
CA -20.879 -2.15202 31.3575
CA -15.5528 -20.4347 36.163
CA 21.781 -22.2042 36.1319
CA -14.1173 22.5614 39.6442
CA -11.6949 -3.0673 46.9752
CA 6.44699 -25.3548 70.5882
CA -9.00723 -16.6051 31.54
CA 2.76338 14.553 79.4143
CA -4.51837 -4.86884 42.2915
CA 10.301 0.746434 71.7465
CA -3.81917 -36.5188 37.9615
CA -3.51022 19.6043 24.7211
CA 10.3654 33.8327 44.8942
CA -21.765 -8.7999 56.1771
CA 14.9363 16.5455 42.9019
CA -8.24277 14.9992 70.2706
CA 6.50845 3.57245 23.128
CA -11.7566 -11.2059 21.6413
CA 11.2014 -25.104 38.4478
CA -6.1532 -18.4696 30.5106
CA -27.5511 -4.36632 34.3964
CA -18.4742 -11.065 38.4146
CA -18.0953 -4.54637 35.4803
CA -15.798 0.444333 48.6803
CA 1.57848 -19.3111 29.5642
CA -17.7857 -20.3117 34.4796
CA 8.38487 -20.1217 73.4438
CA -16.305 -28.5125 15.9492
CA -13.462 -25.105 30.0836
CA 21.3269 9.09616 86.4389
CA -14.8141 -25.348 37.7552
CA -15.0868 -16.5601 17.9018
CA 33.6021 11.8899 38.5848
CA -3.93058 11.3881 43.22
CA -2.85865 4.08216 24.7417
CA 35.2703 16.8804 50.3442
CA -15.0584 -24.4502 35.684
CA 28.7421 -13.9213 47.637
CA 27.4495 18.7539 55.937
CA -24.8654 -12.2064 42.739
CA -12.433 -30.2782 37.6065
CA -0.333051 4.38067 19.9524
CA 4.4631 -12.1901 77.5657
CA -9.39884 4.67625 68.9262
CA -20.2772 -6.65167 57.9358
CA -11.8698 16.5948 30.5932
CA 13.9731 0.0253655 53.2397
CA -26.3171 -4.26772 36.3116
CA -14.6889 -23.4154 37.4798
CA -12.0129 -9.85816 31.0754
CA -11.3738 12.1644 46.2603
CA 9.69894 -18.7671 46.6328
CA 20.8217 6.85696 89.7952
CA -13.0121 -17.8233 27.3057
CA 12.8493 -25.0472 66.6814
CA 34.8828 13.6924 53.2867
CA -16.3715 2.17031 47.9773
CA -9.20106 -33.9985 51.7084
CA -19.5868 -1.07094 28.045
CA -16.5952 -17.587 19.4137
CA 32.1002 -13.2003 47.3081
CA -8.76879 -30.4995 54.9156
CA -4.125 6.18772 75.9511
CA 18.3847 -4.39799 41.3271
CA -16.8135 8.3499 45.1793
CA 30.5925 15.1034 60.2595
CA -2.96234 1.01855 68.6815
CA -7.64461 -19.6143 21.6494
CA -12.3447 -29.7388 51.9551
CA -3.51776 5.63522 13.9385
CA -10.9173 8.22718 67.3111
CA 5.26146 -21.5563 62.8787
CA 23.3516 11.0533 83.0113
CA -5.88194 -0.952849 60.1976
CA 29.9804 10.8321 57.7456
CA -21.4623 -3.73449 64.5206
CA 8.4231 12.0599 68.026
CA -10.0284 -27.4155 37.0155
CA -14.3865 -9.41962 16.333
CA -18.6219 -7.92387 57.6278
CA -18.6381 -7.65815 38.6388
CA -17.9215 5.24052 45.6298
CA -14.1452 -8.10172 64.9294
CA 18.8645 8.49998 30.1914
CA 5.95489 -23.2953 72.0805
CA 2.26806 -36.3008 41.2357
CA -13.7442 -16.4563 22.1071
CA 9.69739 -27.5577 45.8353
CA -13.6558 -21.836 23.787
CA 21.6258 17.7911 50.0751
CA 33.1859 8.71285 39.0095
CA -20.8859 25.6559 31.125
CA 22.6972 -17.4447 37.1495
CA 0.60015 -21.8298 31.154
CA -16.071 -21.7901 25.3114
CA -14.3515 -10.9071 32.3462
CA -9.79387 -2.49808 45.7826
CA -4.25391 -20.1145 38.5201
CA -18.7878 2.45146 52.2378
CA -15.3113 -17.6225 23.7977
CA -18.0358 -13.1628 15.2709
CA -9.55406 -28.8021 41.0166
CA 6.29301 -18.7378 66.3549
CA 20.9447 19.2959 56.9416
CA 3.75674 7.88207 22.2237
CA -10.8942 -6.67935 34.9599
CA -15.4052 25.6672 39.8109
CA -1.50813 -35.9616 37.7919
