489

CA 8.40953 -26.0818 53.5596
CA -1.74263 -48.1651 64.6615
CA 14.7085 -19.5362 46.4176
CA -1.10622 1.07549 49.0187
CA -12.4342 -13.8271 62.5121
CA -18.4506 -19.0707 47.5664
CA -1.12006 -29.6871 55.99
CA 25.6985 -35.4056 40.9725
CA -1.24683 -17.5234 21.7698
CA -12.5798 -29.0442 47.773
CA 3.53416 -4.07561 42.4555
CA 0.363759 2.4993 56.0321
CA -8.14127 -11.9498 21.7231
CA 7.34185 -10.3927 44.4566
CA 11.2003 -24.5993 52.5742
CA -6.07068 -36.2699 60.3893
CA 23.1949 -3.19638 52.2811
CA -1.25066 -1.19123 47.1597
CA -7.37053 8.07446 60.3554
CA -12.1718 -5.97125 21.0576
CA -13.1636 -18.5313 49.6444
CA -20.4583 -10.6963 42.6285
CA -3.00407 -21.2983 60.0513
CA -2.5462 -18.1548 20.616
CA -13.5815 -30.5649 33.0325
CA -16.7228 -40.5458 36.4368
CA -12.0008 -0.465302 75.5359
CA 0.742155 -7.87309 40.213
CA -12.6018 -24.8134 54.4398
CA -21.1488 -43.4393 37.0338
CA -1.04589 -16.7143 57.6084
CA -3.97571 -11.5557 31.7695
CA 26.0051 -9.24092 48.1943
CA -20.5077 -8.97457 39.735
CA -3.6312 -31.4084 57.1364
CA -8.90855 -29.2348 63.7281
CA -15.9473 -22.0651 47.656
CA -4.26233 -17.9815 18.5293
CA 0.803581 -19.5385 60.0475
CA -15.5136 7.00399 7.19876
CA -23.7572 -3.06499 16.6398
CA -4.67264 -12.7028 23.4834
CA -5.2587 -1.99576 63.4754
CA -13.3581 7.26417 9.44632
CA -9.97982 13.1808 74.5405
CA -8.68714 -41.4818 37.8751
CA -17.3927 3.2209 18.772
CA -2.96287 15.866 64.5601
CA -17.5923 12.4487 63.0921
CA -13.201 -14.0813 66.7526
CA 4.98505 -29.1343 51.4862
CA -5.5897 -8.55387 28.342
CA -7.02278 -13.4506 17.3622
CA -10.4116 14.301 68.562
CA 22.5874 -10.6446 50.2152
CA 3.02228 -29.2833 40.6028
CA 2.44465 5.3206 45.1907
CA 6.88188 -36.4541 63.8072
CA -18.9877 8.09771 41.9823
CA -15.3847 -19.6924 52.8597
CA 22.2953 -16.7175 47.5898
CA -13.459 -5.32645 45.7297
CA -10.7444 -14.2926 16.6377
CA -10.0996 -0.929305 14.8195
CA -2.0807 -35.0545 48.4492
CA -12.833 -14.7161 68.4404
CA -22.9995 -7.43939 54.8171
CA -12.7739 -10.3834 15.3533
CA -4.02443 -35.2807 70.2917
CA 6.29332 -24.907 43.2931
CA -13.0984 -8.5227 49.0926
CA -8.68819 3.27633 54.5617
CA -9.07807 -38.3475 70.1825
CA -33.9229 -3.53853 63.2555
CA -1.23756 -35.5119 69.5601
CA -18.9525 -7.38353 17.0651
CA -4.82682 -17.0744 36.3877
CA -0.751771 1.26975 57.6547
CA -8.69655 0.105017 57.9913
CA -23.0511 -4.69061 40.2068
CA -11.4436 -6.51299 45.6797
CA -0.788479 -49.7487 63.0628
CA -35.805 -3.30455 60.7689
CA 0.154281 -32.8438 65.4034
CA -8.94942 -16.3652 23.4991
CA -29.6196 -4.47613 61.1172
CA -21.8454 -12.3745 49.9935
CA -13.5137 -31.1306 52.2189
CA -21.123 -5.48106 14.8556
CA 27.1884 -2.08704 50.7558
CA -14.1152 7.89378 39.4334
CA -15.4732 -44.7066 66.8425
CA -13.3207 -18.4154 18.1414
CA 1.10088 0.118866 67.4732
CA -21.3849 5.02924 73.0237
CA -20.2829 -7.1533 56.539
CA 22.672 -19.3728 48.0983
CA -5.71335 -37.7622 59.3135
CA 24.8173 -13.876 60.588
CA -10.098 -23.05 64.3059
CA -10.4176 7.68915 59.9355
CA -6.03683 -16.0244 63.8796
CA 1.81619 -15.8097 44.924
CA -32.0186 -17.8432 41.3935
CA -1.8694 -28.0539 53.7186
CA -17.6739 3.69999 74.8572
CA -8.49074 7.31241 37.6561
CA -6.9292 -19.8702 61.5831
CA -14.1528 -38.0749 49.6463
CA -13.1226 0.564616 56.8236
CA 15.036 -15.513 55.9087
CA 17.1504 -23.3111 35.6611
CA -9.56342 -44.5144 36.2356
CA -25.122 7.57643 61.063
CA -11.6608 -31.9288 48.3092
CA -6.40357 -28.2987 53.9794
CA 2.09092 3.49302 55.4568
CA 20.7692 -18.0992 53.4028
CA -23.2429 7.49215 64.1495
CA -4.93498 -20.4961 68.0318
CA -7.24069 -24.5742 66.3738
CA 7.19674 -24.1955 44.7266
CA 5.20595 0.212369 63.0148
CA -10.3148 -32.7239 35.3643
CA -5.36565 -7.05175 41.2478
CA -15.3833 -11.2972 43.1019
CA -21.4375 -22.3278 20.1648
CA -19.5127 -8.97001 45.646
CA 13.7161 -14.275 51.2357
CA -13.5968 -0.694565 61.6745
CA -24.942 -5.1976 17.8691
CA -7.66259 -16.5338 66.579
CA -15.0266 -12.1148 63.3753
CA -5.4939 10.7066 52.2181
CA -0.271272 -33.887 55.2625
CA 11.7777 -25.1105 55.1068
CA -11.5469 -30.566 36.9264
CA -0.81102 -18.8718 55.0126
CA -16.3889 -24.7348 19.5027
CA -21.2079 -6.75425 34.9674
CA -9.01696 10.9283 38.5928
CA -21.2125 9.42838 39.8299
CA -15.4996 -30.5791 42.4328
CA -11.8147 -14.8283 57.1841
CA -11.2779 -10.8796 54.6418
CA 9.43691 1.42798 66.7058
CA -8.28241 -30.7211 40.9194
CA -8.6039 -24.1573 51.7845
CA -5.41329 -28.3208 56.9268
CA -22.9978 12.0033 63.2095
CA -19.6397 -1.81695 14.2261
CA -5.01099 -35.5965 45.8234
CA -7.08647 -6.27613 44.5755
CA -23.1734 -19.5469 47.5516
CA -13.8575 -7.67802 17.5926
CA -2.7427 -8.64599 25.9793
CA -8.72249 5.35803 35.7579
CA -12.9471 1.58982 39.3898
CA -27.5431 1.47082 64.566
CA -2.09152 -36.8909 58.8171
CA -7.95605 -24.4506 15.3926
CA -8.51962 9.06615 57.537
CA -0.509602 -36.4581 46.6215
CA -3.17933 -23.9627 41.4414
CA 12.0632 -31.0479 54.0544
CA -23.3211 -10.4563 61.3329
CA -22.1953 -4.68605 18.8307
CA -6.27016 -13.4929 23.9775
CA -16.3683 -47.4269 33.5907
CA -5.63773 -42.3803 40.3496
CA -23.9429 -9.80494 59.765
CA -10.7655 -24.3649 66.2077
CA -10.5365 -27.0871 33.7125
CA -2.97374 -23.0299 45.1095
CA -5.42288 -30.7117 47.4138
CA -20.5657 -7.61134 37.4108
CA 2.15786 -17.4036 40.9514
CA -12.7476 -41.9675 68.6948
CA 0.0207119 -40.1272 43.815
CA -0.27896 4.46678 65.6254
CA 9.80153 -6.85621 56.3004
CA 23.3614 -17.3803 58.0418
CA -15.3625 -29.5842 58.6165
CA -14.1687 -34.2424 60.2163
CA -12.233 -50.8088 34.3501
CA -17.19 -43.6116 38.8819
CA -20.6162 -24.3618 64.2061
CA -28.7243 6.30442 59.7066
CA -9.83655 -9.90074 40.9557
CA -12.8434 3.50461 10.8823
CA -11.0756 -25.5488 57.148
CA 7.55054 5.25185 62.8564
CA -18.8341 -22.9524 47.2861
CA 26.4309 -22.4739 43.9049
CA -14.7799 -14.7096 15.1488
CA 4.64797 4.31787 44.5814
CA -11.0865 8.69644 76.5709
CA -21.379 -9.50434 49.4468
CA -16.607 -25.7 17.3666
CA -9.95844 11.0544 85.1907
CA -9.12133 -31.4127 34.5812
CA -13.9678 -16.3907 67.5254
CA -0.306338 -34.1864 44.3665
CA -15.4185 -45.4667 39.7105
CA -5.90965 4.08026 63.0293
CA -21.6143 4.61934 37.013
CA -12.5926 1.91294 18.0222
CA -2.52835 -23.6091 67.7791
CA -19.3141 -2.40116 78.3704
CA -13.4232 -22.2827 17.8065
CA -18.9643 -0.432134 81.6085
CA -8.4074 -6.38946 42.5046
CA -25.9805 -13.0128 43.18
CA -25.7378 -4.68586 65.2026
CA 16.4004 -23.4382 42.6769
CA -22.0484 14.9251 63.8468
CA -5.57849 6.31829 56.3742
CA -0.809537 -17.9009 37.2926
CA -15.0103 -18.0179 60.8057
CA 1.14452 -15.6251 39.1901
CA -15.8174 -49.2079 35.0842
CA -10.1703 -0.781975 11.6189
CA -9.76802 -22.3712 58.4524
CA -7.81753 -19.3334 53.9955
CA -9.6528 -11.5078 55.9277
CA -9.76601 -24.2716 58.0367
CA -21.2803 -28.875 17.4825
CA -21.4519 -21.7374 48.0946
CA -12.5375 -44.2082 65.1987
CA -11.8916 11.8394 74.8406
CA -13.4432 10.0082 70.8922
CA -23.0209 -25.4375 60.5891
CA -5.15731 -20.4655 46.1988
CA -12.6104 4.76579 74.1815
CA -5.7207 -10.151 42.8711
CA -19.7799 -10.3876 52.4801
CA -19.5417 -13.4537 43.0817
CA 5.35395 -14.7429 46.1528
CA -5.10645 -18.7858 50.0055
CA -12.6197 -33.1735 50.006
CA -8.82446 -8.73714 25.9452
CA 1.82745 -37.5086 51.9731
CA 6.14527 1.02545 52.9297
CA -26.0619 -13.0512 45.0488
CA -5.31635 -0.105268 68.1727
CA 8.71757 -26.0558 56.4977
CA -4.5058 -8.80219 26.9036
CA -2.05206 -33.5915 61.8485
CA -30.421 -0.953689 59.6824
CA -1.25811 -32.4631 56.413
CA -10.1347 -21.8058 67.4457
CA -9.49721 -31.9944 51.3321
CA -6.30334 6.02524 54.4377
CA -14.3353 -45.5704 36.9645
CA 8.85058 -22.2358 46.6537
CA -7.56689 -29.9767 44.5393
CA -17.0378 -34.5671 51.3662
CA -4.49687 -31.49 43.6587
CA -8.09484 8.7882 53.8555
CA -0.56889 -37.2852 62.1148
CA -17.5303 -8.6187 43.5052
CA -10.6492 10.7446 60.7522
CA -7.31174 -6.55672 49.9697
CA -10.2994 -9.98153 16.7028
CA -26.2893 -10.9702 38.6343
CA 4.71023 1.42482 59.18
CA -7.3453 -20.4115 65.0055
CA -15.7629 -46.9643 44.5917
CA -4.59878 -30.7411 38.2765
CA -30.1144 -2.87272 57.5451
CA -0.789809 4.51468 59.6426
CA -2.01331 8.17969 68.0709
CA -11.845 -38.2754 66.5069
CA -16.8268 -34.0566 53.551
CA -2.08994 -19.6183 58.0965
CA 6.15313 0.164539 68.3232
CA 8.26591 2.85886 63.2336
CA -7.7031 -1.13393 60.7654
CA -3.10835 -35.047 58.5302
CA 22.0793 -7.46196 53.327
CA 13.5265 -25.2679 47.37
CA -16.2296 -25.497 61.0557
CA -12.153 -9.08598 17.9191
CA -3.3319 -38.2766 68.7675
CA -6.02714 3.41856 70.5635
CA -23.2742 -6.88094 16.5932
CA -10.5227 -20.5485 57.7123
CA -15.8258 -17.3574 14.2384
CA 9.36875 -25.7122 43.8907
CA 26.0424 -27.6909 40.2705
CA -13.9794 -3.01501 79.0082
CA -5.16299 -31.3167 41.7072
CA -23.9338 -4.20658 33.1369
CA -19.46 -23.8947 43.0439
CA 7.87116 -17.6535 49.4996
CA -4.26786 -4.83591 47.9938
CA 10.4893 -16.4597 56.2156
CA -18.8378 -43.3733 36.8733
CA -13.3032 -13.01 44.7091
CA -3.65403 11.2185 63.8357
CA -21.7846 2.43648 19.6434
CA -15.28 -21.5361 63.9409
CA -12.753 11.802 38.3769
CA -17.9763 -4.62608 12.7686
CA -7.63194 -16.8846 46.3286
CA -24.7909 -10.4879 56.4711
CA -3.61234 -2.0723 69.559
CA -18.3968 -34.8744 59.1796
CA -18.2598 -30.3413 54.5154
CA -7.18793 -28.4727 64.3722
CA -10.3131 2.33849 74.5145
CA -21.2492 -26.3544 57.1377
CA -10.1493 -18.3947 59.2467
CA -4.42461 -35.4038 49.6336
CA -20.2553 -20.8875 67.1439
CA 20.4814 -16.0356 52.0325
CA -8.92153 -28.303 32.9713
CA -0.400746 -30.2773 36.658
CA -5.37255 -38.7261 37.6538
CA 22.9295 -12.1617 58.2575
CA -10.6052 -11.7663 66.4481
CA -3.43423 4.61352 67.4546
CA -20.9234 8.99103 68.5152
CA -9.76093 -1.80546 77.2345
CA 7.76136 -20.3688 46.7414
CA -11.7061 -18.1041 52.7964
CA -20.2525 -4.14239 19.2171
CA -5.48097 -29.8051 35.9424
CA 6.59914 -16.5539 45.253
CA -2.01222 -45.8879 66.7229
CA -11.1349 -21.072 52.6587
CA -13.4204 3.30643 15.95
CA 1.99041 -31.211 54.0637
CA 24.4577 -3.87286 50.619
CA 15.434 -15.3841 54.0054
CA -24.7087 11.0802 64.7857
CA -0.363778 -36.9023 68.1447
CA -27.5202 -4.9085 62.2263
CA 0.239309 -21.5567 22.5321
CA -6.3015 2.9934 51.4827
CA -24.3776 -0.994515 66.7305
CA -3.12648 -22.0431 33.7467
CA -20.799 5.37618 70.2643
CA -11.8683 -23.2922 63.734
CA -2.02546 5.24187 46.9786
CA -36.4577 -3.71998 64.8324
CA -5.67901 -32.7776 49.6375
CA -4.85089 -22.1183 73.1536
CA 0.64299 -40.3989 41.3827
CA -4.20251 -43.3105 66.8031
CA -2.60391 4.54847 65.8521
CA -12.4162 -12.8439 65.5159
CA 6.01746 -26.9174 44.3695
CA -1.15034 2.91037 66.7604
CA 25.808 -23.9679 36.7494
CA -24.2699 -6.23566 12.7946
CA 24.2254 -16.1023 65.5631
CA -6.79267 -31.3206 32.4034
CA -12.8589 -27.756 63.691
CA -18.4279 -41.9533 39.1894
CA -5.54726 -21.1925 63.9126
CA -23.3819 -6.01718 64.1782
CA -17.6165 -3.34933 78.8712
CA -10.1888 0.539194 37.8294
CA 25.6117 -32.602 41.5142
CA 0.764616 5.96127 66.5541
CA 12.6263 -18.7929 51.9505
CA 0.232232 -31.0576 47.8358
CA 7.80249 5.40637 59.8923
CA -29.3062 4.24855 69.3092
CA 9.34607 -29.4817 38.0196
CA -11.7276 -21.4606 48.9954
CA 13.2064 -27.1473 55.8833
CA -13.0022 1.85108 74.4903
CA -17.5194 -32.9986 50.1494
CA 0.505959 10.3936 67.2487
CA 21.4916 -10.1787 54.323
CA -21.7666 5.03956 61.9303
CA -12.1534 -32.3988 64.9795
CA 1.39871 -36.0437 61.6941
CA -16.3607 -1.96362 79.4305
CA 2.16057 -14.95 24.4467
CA 17.4534 -24.6329 37.444
CA -8.18772 -30.0509 30.7165
CA 3.97993 -38.1327 63.1917
CA -7.92192 -17.2288 16.1642
CA 11.7194 -1.43857 66.035
CA -3.15904 0.126125 50.0964
CA -4.81308 -12.9238 11.3117
CA 16.1204 -14.4762 47.9821
CA -3.24657 -42.0017 44.0074
CA -7.55442 14.6872 53.382
CA -17.3084 10.752 70.335
CA -9.32614 -12.3555 19.9706
CA -4.84558 -14.6445 49.7409
CA -2.06929 -30.3006 54.578
CA -20.1327 5.65127 19.3573
CA -0.832062 -14.9947 54.9816
CA -23.8312 -13.5359 45.8427
CA -14.4402 -15.2653 55.1502
CA -18.0244 4.35705 46.2455
CA -21.6413 -25.1114 62.0974
CA -11.0373 -3.29082 46.6788
CA -6.88246 -31.5462 46.6703
CA -5.2218 -38.0007 57.0636
CA -17.8458 -18.6751 61.0825
CA -1.13487 -18.1938 34.0969
CA 2.29209 3.31603 66.4437
CA -17.3846 -20.2572 41.3217
CA -19.5316 -25.6186 63.4939
CA -25.4139 -27.9838 15.242
CA 10.6551 -14.1281 58.4189
CA -23.5153 -0.821938 15.386
CA 20.8564 -9.43033 61.0692
CA -9.31005 -17.7836 17.6062
CA -13.3876 -36.6807 67.0179
CA -5.40421 -5.43721 43.3941
CA -6.7087 -4.84903 69.1785
CA -12.1684 -13.0353 56.0365
CA -7.44582 -10.2346 21.4285
CA -5.93641 -16.1911 22.6741
CA -28.2266 4.47067 62.434
CA -5.29397 -15.8011 47.3187
CA -16.2099 -17.1975 65.3331
CA 20.3712 -5.53282 55.3363
CA -5.97114 -21.6523 62.0795
CA 3.44408 -16.2545 24.9401
CA 22.5521 -22.4867 46.0496
CA -2.57305 -46.2027 37.9464
CA -3.91794 5.75882 63.7316
CA -19.0138 -9.68914 41.1359
CA -16.2178 -28.1321 55.4173
CA -1.22803 -0.282828 44.844
CA -1.81285 -28.0448 38.2161
CA -11.8749 -39.2093 69.7322
CA -4.10438 -20.3313 44.2871
CA -8.36392 -3.13716 75.7155
CA 0.5181 -4.64774 45.7971
CA -12.553 -19.8643 16.5546
CA -0.0230499 1.90503 60.3303
CA -26.2849 -0.769585 66.3544
CA -6.01924 -18.2623 33.2426
CA -6.08703 -25.5644 65.3196
CA -0.744842 -12.0825 22.39
CA -5.7276 19.3699 53.3446
CA -12.3352 11.6429 80.1829
CA -6.18168 -19.8756 43.7752
CA 2.77444 -24.2292 45.7006
CA -14.602 -9.95811 57.6116
CA -17.2812 -16.3019 45.7549
CA -23.0956 -9.72377 57.3084
CA -27.0438 -20.3055 46.3321
CA -9.86684 -37.5317 67.9891
CA -19.5089 -20.2857 42.5556
CA -2.22526 -9.31307 35.158
CA 7.42438 -0.215305 66.249
CA 1.484 -7.69314 36.9564
CA -4.08956 -24.2426 63.4479
CA -10.1006 -35.8597 58.3866
CA -9.5296 -3.56862 41.5538
CA -14.7079 -23.9318 53.0553
CA 0.288589 -20.1157 42.0521
CA -6.13278 0.703529 47.025
CA -9.66101 -21.4998 17.0803
CA -19.671 -26.169 68.0675
CA -17.4986 -12.6652 43.5787
CA 6.31097 6.74137 67.4645
CA -15.9371 -10.5935 55.2103
CA -21.3026 -5.74933 51.2113
CA -11.7264 -7.94444 14.2885
CA 4.21522 7.74158 42.3039
CA -7.01703 -24.3134 59.5809
CA 29.253 -25.4593 44.374
CA -13.2061 -10.5007 62.9937
CA -8.66202 3.08084 35.5148
CA -9.27178 -13.289 13.6391
CA -27.4471 -29.7006 14.4399
CA -0.203657 -33.8421 52.7324
CA -19.8932 12.337 62.2739
CA -5.48006 -20.4354 17.796
CA 8.98178 -2.73504 54.8716
CA -28.5623 -18.2921 45.0418
CA -1.40659 -40.5012 63.451
CA -14.2125 -5.5956 48.5564
CA -2.25735 2.24373 47.1401
CA 6.94316 -14.6857 41.0662
CA -16.3921 -20.4193 48.3348
CA -6.29993 -38.0657 42.8451
CA -25.2655 2.49506 74.375
