489

CA -8.69409 -21.4977 62.7085
CA -8.01647 6.67256 51.8624
CA -27.7762 -12.9138 46.0312
CA -15.4577 -5.61572 41.8074
CA -12.4342 -13.8271 62.5121
CA -18.4506 -19.0707 47.5664
CA -2.27505 -33.9971 69.1286
CA 25.6985 -35.4056 40.9725
CA -1.24683 -17.5234 21.7698
CA -12.5798 -29.0442 47.773
CA -19.4555 -21.3948 63.5823
CA -2.55214 2.74439 62.142
CA -11.0563 -32.3268 36.9787
CA 0.194543 -18.4345 62.7021
CA -20.1203 -16.8456 45.8892
CA -20.0121 -22.259 17.0858
CA -7.98784 -43.0477 66.3399
CA -12.3894 -23.3581 59.2092
CA -26.8226 -3.96515 39.8463
CA 4.08425 -28.3025 50.0804
CA -21.0901 -24.75 44.304
CA 14.9759 -19.7233 44.6428
CA -2.11844 -24.0837 43.9125
CA -2.5462 -18.1548 20.616
CA -13.5815 -30.5649 33.0325
CA -16.7228 -40.5458 36.4368
CA -10.8632 -45.7107 65.6028
CA 0.742155 -7.87309 40.213
CA -12.6018 -24.8134 54.4398
CA -12.9304 -31.982 59.4038
CA -1.04589 -16.7143 57.6084
CA -3.97571 -11.5557 31.7695
CA -19.6996 9.4272 63.2747
CA -2.99721 -30.3925 48.9477
CA -29.1204 -19.967 56.8224
CA -7.01228 -7.81881 51.2723
CA -11.4723 -23.1309 69.1839
CA -2.32091 12.2287 67.1244
CA 0.803581 -19.5385 60.0475
CA -6.95383 -14.8997 45.4327
CA -26.3438 -23.491 61.8357
CA 11.6489 5.47849 68.1738
CA -10.8043 -7.07224 21.3325
CA 1.11345 -14.8493 26.1777
CA -24.9111 9.01304 62.3353
CA -24.4771 11.268 61.2051
CA -13.1535 -14.3914 58.775
CA -13.6483 -41.9097 71.0058
CA -17.5923 12.4487 63.0921
CA 6.80577 -0.272682 60.4909
CA 4.98505 -29.1343 51.4862
CA -5.5897 -8.55387 28.342
CA -7.02278 -13.4506 17.3622
CA -10.4116 14.301 68.562
CA -17.6696 -31.8643 30.0903
CA -24.9426 -21.2745 58.5564
CA 2.44465 5.3206 45.1907
CA 6.88188 -36.4541 63.8072
CA -18.9877 8.09771 41.9823
CA -15.3847 -19.6924 52.8597
CA 2.09917 5.37605 66.9381
CA -13.459 -5.32645 45.7297
CA -8.21198 -19.1593 67.5265
CA -10.0996 -0.929305 14.8195
CA -2.0807 -35.0545 48.4492
CA -17.7048 -24.4593 63.9035
CA -3.85278 2.65403 67.3757
CA 26.883 -15.1767 64.0469
CA -18.314 -22.3786 59.241
CA -1.74684 -14.0661 54.4876
CA -13.0984 -8.5227 49.0926
CA -8.68819 3.27633 54.5617
CA -12.9564 -30.7365 50.1812
CA 4.09859 -26.7382 47.1293
CA -1.23756 -35.5119 69.5601
CA -5.55486 -33.1893 56.9155
CA -22.6283 3.7077 71.5172
CA 10.3838 -25.6617 47.4425
CA -8.69655 0.105017 57.9913
CA -23.0511 -4.69061 40.2068
CA -1.54092 -49.5749 67.0723
CA -0.788479 -49.7487 63.0628
CA -26.6278 -2.27654 37.5579
CA -25.9764 3.67503 60.4314
CA -8.94942 -16.3652 23.4991
CA 22.5763 -11.1447 63.7561
CA -21.8454 -12.3745 49.9935
CA -6.76937 -15.325 43.2683
CA -21.123 -5.48106 14.8556
CA -5.87471 3.9883 32.3253
CA -8.68903 -34.5777 52.3133
CA -27.2793 -4.63563 67.2763
CA 2.31955 -29.0715 50.7932
CA 2.84132 -19.513 44.3651
CA -17.9031 -22.2613 42.8012
CA -20.2829 -7.1533 56.539
CA 22.672 -19.3728 48.0983
CA 7.33222 -40.8155 62.2407
CA -1.53187 -23.9711 70.4151
CA -23.7191 -15.0333 47.8076
CA 13.6748 -22.1287 45.8303
CA -17.0229 9.53553 67.6226
CA 15.1854 -25.2165 45.158
CA 5.94076 9.59564 43.1226
CA 7.35232 -15.4264 55.8129
CA -17.6739 3.69999 74.8572
CA -8.49074 7.31241 37.6561
CA -14.8267 -18.8483 49.4329
CA -9.12729 9.55732 60.0266
CA -4.37731 -37.8314 66.9128
CA 15.036 -15.513 55.9087
CA -11.3352 -19.5927 66.2938
CA -9.56342 -44.5144 36.2356
CA -25.122 7.57643 61.063
CA -27.6675 -24.1475 57.714
CA -16.8028 -4.09285 77.3313
CA 2.09092 3.49302 55.4568
CA -8.13879 2.6726 72.3889
CA -17.9216 0.111085 77.3149
CA -11.9585 -34.3037 46.095
CA -7.24069 -24.5742 66.3738
CA -10.4754 -13.5099 45.2023
CA -0.864625 -32.2079 60.3759
CA -21.7228 -30.6117 60.6987
CA 14.2085 -12.5961 48.6777
CA 13.2807 -13.5696 54.0647
CA -21.4375 -22.3278 20.1648
CA 9.90791 -30.3537 58.3491
CA 13.7161 -14.275 51.2357
CA -14.458 -10.4953 19.7318
CA 7.80321 -31.615 46.7386
CA -7.66259 -16.5338 66.579
CA 5.7755 -16.4305 35.1125
CA -16.9291 -23.1563 39.9783
CA -14.3434 -14.5874 69.9945
CA -25.1588 -15.1217 42.7112
CA -11.5469 -30.566 36.9264
CA -0.81102 -18.8718 55.0126
CA 9.30751 -30.2681 45.2455
CA -20.1246 16.4419 63.2793
CA -9.01696 10.9283 38.5928
CA -7.71925 -36.9345 63.6065
CA -19.6968 -12.6525 47.7403
CA -11.8147 -14.8283 57.1841
CA -11.2779 -10.8796 54.6418
CA -22.9208 8.16519 64
CA -7.78162 11.4255 70.21
CA -16.7366 -44.17 36.6107
CA -12.1073 -12.7715 65.3863
CA -22.9978 12.0033 63.2095
CA -19.6397 -1.81695 14.2261
CA -10.5682 -20.8091 72.1355
CA -10.8408 -16.8897 68.1001
CA -7.55647 -26.5921 67.8426
CA -0.0960816 -35.567 72.6042
CA 2.72857 -42.5529 67.3568
CA 8.53709 -21.2101 53.3158
CA 1.23352 -14.2358 48.5109
CA -27.5431 1.47082 64.566
CA -12.012 13.9137 78.0918
CA -7.95605 -24.4506 15.3926
CA -15.9072 -23.0878 42.2527
CA -0.509602 -36.4581 46.6215
CA -3.17933 -23.9627 41.4414
CA 12.0632 -31.0479 54.0544
CA -23.3211 -10.4563 61.3329
CA -27.2971 5.55059 70.3584
CA -6.27016 -13.4929 23.9775
CA -8.97431 -1.1957 40.3136
CA -5.63773 -42.3803 40.3496
CA 13.9336 -23.1869 40.3414
CA 1.5203 9.05979 42.9034
CA -10.5365 -27.0871 33.7125
CA -2.97374 -23.0299 45.1095
CA 4.99987 -1.94434 51.6103
CA -20.5657 -7.61134 37.4108
CA -13.7571 9.08721 46.8127
CA -12.7476 -41.9675 68.6948
CA -11.882 11.4587 41.4724
CA -8.67597 -14.9283 40.5427
CA -9.96458 -14.3524 55.6646
CA 23.3614 -17.3803 58.0418
CA -15.3625 -29.5842 58.6165
CA -14.1687 -34.2424 60.2163
CA 1.48191 -16.7225 43.3551
CA -17.19 -43.6116 38.8819
CA -1.55021 -44.2708 65.2005
CA -28.7243 6.30442 59.7066
CA -11.6602 1.9206 57.4203
CA -12.8434 3.50461 10.8823
CA -19.238 -21.9716 40.8165
CA -6.46721 -30.8421 43.8848
CA -13.1743 -4.97113 16.3536
CA 26.4309 -22.4739 43.9049
CA -7.51315 -5.18499 70.7681
CA -4.58146 -30.1648 50.4754
CA -27.2784 5.3832 75.3024
CA 6.12367 -28.0294 59.0707
CA -16.607 -25.7 17.3666
CA -3.41838 -48.2471 68.2781
CA -3.77364 -23.7038 70.7814
CA -10.0421 -9.55596 22.3235
CA 10.7358 -22.8758 49.5432
CA -8.37804 -40.144 58.9895
CA -0.675808 -24.4332 47.4058
CA -21.6143 4.61934 37.013
CA -12.5926 1.91294 18.0222
CA -28.8494 -24.7038 16.6667
CA -11.6616 -1.4426 73.2539
CA -13.4232 -22.2827 17.8065
CA -18.9643 -0.432134 81.6085
CA -0.819859 -47.7764 65.6865
CA -25.9805 -13.0128 43.18
CA -12.7757 -1.28666 77.8074
CA -3.73263 -40.6668 57.4042
CA -7.60219 -21.2344 15.155
CA -5.57849 6.31829 56.3742
CA -6.69783 -10.5561 52.1778
CA -3.93567 -35.0987 48.8365
CA 1.14452 -15.6251 39.1901
CA -16.1665 -12.8742 45.2404
CA -10.8491 -31.6343 61.3702
CA -9.76802 -22.3712 58.4524
CA -21.4655 6.03233 65.3459
CA -9.6528 -11.5078 55.9277
CA 0.459549 -25.219 42.6982
CA -16.2972 5.55453 70.3542
CA -6.21881 -41.6864 68.9651
CA -12.5375 -44.2082 65.1987
CA -11.8916 11.8394 74.8406
CA -6.46012 12.7078 54.1882
CA -19.1383 -24.73 56.5302
CA -5.15731 -20.4655 46.1988
CA -1.4408 -4.06496 44.1934
CA -5.7207 -10.151 42.8711
CA -19.7799 -10.3876 52.4801
CA -10.7894 10.9395 60.719
CA 5.35395 -14.7429 46.1528
CA -5.10645 -18.7858 50.0055
CA -12.6197 -33.1735 50.006
CA -8.82446 -8.73714 25.9452
CA -8.2001 -16.7405 50.4622
CA 6.14527 1.02545 52.9297
CA -26.0619 -13.0512 45.0488
CA -7.0939 -18.2779 44.9484
CA 8.71757 -26.0558 56.4977
CA -4.5058 -8.80219 26.9036
CA 6.1432 -21.1981 54.6201
CA -2.17016 -21.5977 69.5918
CA 13.1144 -16.4647 52.4578
CA -10.1347 -21.8058 67.4457
CA 22.2784 -15.1889 48.9733
CA -6.30334 6.02524 54.4377
CA -0.796525 7.23355 53.2862
CA -19.7077 -27.463 16.197
CA -19.6981 6.09082 37.5396
CA 4.96324 -29.3657 57.701
CA -4.49687 -31.49 43.6587
CA -8.09484 8.7882 53.8555
CA -30.286 5.8513 68.2605
CA -9.1927 -13.4771 43.9206
CA -9.46121 -26.6081 65.0998
CA -7.31174 -6.55672 49.9697
CA -10.2994 -9.98153 16.7028
CA -13.5708 9.32728 66.8348
CA 16.1331 -23.5822 41.5921
CA -26.2688 -8.78779 57.0652
CA -7.55618 -22.515 65.3313
CA -26.4336 -8.76244 54.0542
CA -3.57658 7.19556 51.0276
CA -15.2021 -42.5934 39.9607
CA -2.01331 8.17969 68.0709
CA -19.4699 1.95632 79.8271
CA -16.8268 -34.0566 53.551
CA -2.08994 -19.6183 58.0965
CA -17.2159 -10.9172 42.8673
CA 8.26591 2.85886 63.2336
CA -6.38564 -21.0605 29.6847
CA -3.10835 -35.047 58.5302
CA -1.28408 -47.6365 70.352
CA 13.5265 -25.2679 47.37
CA -16.2296 -25.497 61.0557
CA -18.5735 -29.3167 29.6449
CA -4.17313 7.29705 54.3714
CA -6.02714 3.41856 70.5635
CA -8.02586 6.8339 74.9481
CA 1.15982 -15.1376 36.7499
CA -5.38232 10.1411 48.5544
CA 12.68 -23.2831 41.8692
CA 10.1292 0.53699 55.42
CA -9.19452 -2.60739 43.4044
CA -5.16299 -31.3167 41.7072
CA -16.2308 -15.9927 63.9053
CA -1.23949 -30.7185 49.6415
CA -6.3311 7.7859 50.1247
CA -4.26786 -4.83591 47.9938
CA 10.4893 -16.4597 56.2156
CA 26.1709 -21.1225 45.1468
CA -5.5528 -20.6793 50.461
CA -16.5447 -3.68746 17.0778
CA -16.542 -10.9438 53.1487
CA -23.4569 -5.04119 15.4247
CA -6.36748 -16.0533 70.1764
CA -17.9763 -4.62608 12.7686
CA -7.36294 -21.2997 33.5818
CA -24.7909 -10.4879 56.4711
CA -11.3858 -23.4501 16.1851
CA -18.3968 -34.8744 59.1796
CA 18.1599 -10.7459 50.3155
CA -17.3798 -23.4312 20.5636
CA 1.4322 -38.9458 63.8961
CA -15.8739 -34.4205 65.8088
CA -16.7431 -10.0706 38.9611
CA 1.25255 3.85075 59.3257
CA -3.13357 -21.1046 59.7416
CA 20.4814 -16.0356 52.0325
CA -21.6023 6.69514 62.7393
CA -4.47166 7.57321 59.8369
CA -5.31958 -39.2113 59.3579
CA 22.9295 -12.1617 58.2575
CA -14.2786 3.48336 77.7931
CA -21.0312 -21.9024 59.7762
CA 18.8071 -16.3052 50.9045
CA -30.8638 -20.8036 59.0861
CA -5.38186 -46.3852 63.1205
CA 19.2795 -14.4416 47.0959
CA 10.1979 -28.7716 49.7964
CA -10.4052 -41.9045 39.7045
CA 6.59914 -16.5539 45.253
CA -2.70205 -46.0478 65.591
CA -11.1349 -21.072 52.6587
CA -13.4204 3.30643 15.95
CA 1.99041 -31.211 54.0637
CA -15.1198 -31.6941 31.7437
CA 15.434 -15.3841 54.0054
CA 25.7024 -18.0653 44.7637
CA -12.8715 -18.3955 55.9013
CA -27.5202 -4.9085 62.2263
CA 0.239309 -21.5567 22.5321
CA -0.00160792 -49.9882 36.4416
CA -9.51022 -17.0223 63.3436
CA -3.12648 -22.0431 33.7467
CA -20.799 5.37618 70.2643
CA -5.35159 -23.4969 15.3794
CA -2.02546 5.24187 46.9786
CA -25.9556 -23.1664 14.3003
CA -7.95984 -34.5931 63.9161
CA -19.2733 -17.1612 49.0507
CA -15.326 9.72266 65.3285
CA -4.20251 -43.3105 66.8031
CA -27.1053 -19.1755 41.8678
CA -14.7257 -6.34262 15.8692
CA 6.01746 -26.9174 44.3695
CA -1.15034 2.91037 66.7604
CA -8.63209 -23.9836 67.5364
CA -19.3335 -22.4409 45.0723
CA 24.2254 -16.1023 65.5631
CA -9.0866 -18.8612 25.8334
CA -5.28087 -22.1701 13.6044
CA -3.46828 14.9781 54.2009
CA -12.0239 -13.9372 55.2762
CA -23.3819 -6.01718 64.1782
CA -16.2594 -13.3889 55.2428
CA -10.1888 0.539194 37.8294
CA -26.1634 1.46554 15.5164
CA 10.3814 -23.5761 57.0295
CA -14.8028 -9.93883 65.6934
CA 0.232232 -31.0576 47.8358
CA 7.80249 5.40637 59.8923
CA -29.3062 4.24855 69.3092
CA 9.34607 -29.4817 38.0196
CA -2.22168 0.987047 68.0049
CA -10.1009 -9.75313 53.034
CA -13.0022 1.85108 74.4903
CA -4.10662 -13.0301 27.1486
CA 0.505959 10.3936 67.2487
CA -18.5431 11.4345 67.3245
CA -14.175 12.8286 41.2266
CA -11.0386 6.63353 56.3609
CA 1.39871 -36.0437 61.6941
CA 0.16678 1.69779 71.0063
CA 2.16057 -14.95 24.4467
CA 17.4534 -24.6329 37.444
CA 8.09552 -18.6073 56.1718
CA 3.97993 -38.1327 63.1917
CA -13.3963 -16.2325 67.6073
CA 0.0109254 -29.863 51.2447
CA -3.15904 0.126125 50.0964
CA -4.81308 -12.9238 11.3117
CA -4.59741 -17.6529 51.419
CA -15.5843 6.62861 43.9343
CA -7.55442 14.6872 53.382
CA -4.23475 -33.7572 68.0367
CA -13.3646 -8.40194 37.1074
CA -7.67344 -23.4696 63.6731
CA -6.84182 -31.92 40.3278
CA -16.9132 -30.6681 44.9093
CA -4.04738 16.7761 70.9655
CA -1.63578 -46.9822 63.2843
CA -17.9402 -27.0523 63.4228
CA -15.3324 -23.2787 38.5462
CA -21.6413 -25.1114 62.0974
CA -16.8181 -40.4922 51.7215
CA -24.4013 -26.6136 60.307
CA -5.2218 -38.0007 57.0636
CA -10.2221 -20.8057 63.3623
CA -16.4399 -38.9257 61.0215
CA 2.29209 3.31603 66.4437
CA -8.11864 12.868 38.8882
CA -19.5316 -25.6186 63.4939
CA -25.4139 -27.9838 15.242
CA -29.1466 12.865 60.6675
CA 16.8287 -20.6859 39.5971
CA -7.6126 -11.3344 63.8916
CA -9.31005 -17.7836 17.6062
CA -13.3876 -36.6807 67.0179
CA -5.40421 -5.43721 43.3941
CA -6.85804 10.8513 68.0093
CA 0.193151 -20.6578 56.999
CA -7.44582 -10.2346 21.4285
CA -21.7787 -11.0047 55.0231
CA -12.554 -16.3291 52.4748
CA -5.29397 -15.8011 47.3187
CA -3.162 2.45041 56.963
CA 3.05028 -12.0291 37.0323
CA -5.97114 -21.6523 62.0795
CA 3.44408 -16.2545 24.9401
CA 22.5521 -22.4867 46.0496
CA -2.57305 -46.2027 37.9464
CA -7.67853 15.8904 72.5508
CA -19.0138 -9.68914 41.1359
CA -5.55336 -45.5371 67.9263
CA -1.22803 -0.282828 44.844
CA -1.81285 -28.0448 38.2161
CA -5.94916 -38.3012 44.8854
CA -20.5549 -14.3624 48.0185
CA -8.36392 -3.13716 75.7155
CA -31.7495 -3.47286 67.8067
CA -12.553 -19.8643 16.5546
CA -7.01546 -47.7983 67.8174
CA -26.2849 -0.769585 66.3544
CA 10.2569 -26.1117 49.8713
CA -17.9546 -5.7136 44.9608
CA -11.8574 -14.7094 65.3923
CA -16.5511 4.23752 78.0231
CA -12.3352 11.6429 80.1829
CA -21.421 18.7479 62.1234
CA -9.51387 -7.48438 18.5669
CA -14.602 -9.95811 57.6116
CA -2.47792 -40.0915 56.0196
CA -3.26706 -45.7767 67.4049
CA -27.0438 -20.3055 46.3321
CA -19.0732 2.39758 17.4527
CA -7.25066 -38.632 58.3951
CA -2.22526 -9.31307 35.158
CA 7.42438 -0.215305 66.249
CA 1.484 -7.69314 36.9564
CA 12.0881 -24.634 49.2665
CA -10.9226 -11.5273 51.3572
CA -18.1509 -12.922 45.4634
CA -15.9997 -35.8056 52.9768
CA -9.21445 8.82814 73.7565
CA -6.13278 0.703529 47.025
CA 21.9442 -13.2636 52.6614
CA -19.671 -26.169 68.0675
CA 3.1928 2.604 69.5
CA 6.31097 6.74137 67.4645
CA -11.8092 -42.5398 66.5291
CA -11.5768 -45.5377 38.0265
CA -11.7264 -7.94444 14.2885
CA -22.4441 -10.9948 59.208
CA -7.01703 -24.3134 59.5809
CA 3.73282 -40.3566 64.3995
CA -1.80973 -12.0398 55.0792
CA -8.66202 3.08084 35.5148
CA -9.27178 -13.289 13.6391
CA -10.7813 2.24241 54.8566
CA -7.64099 -32.5958 44.4826
CA -10.7574 -15.9475 54.5923
CA -5.48006 -20.4354 17.796
CA 8.98178 -2.73504 54.8716
CA -28.5623 -18.2921 45.0418
CA -5.32492 -8.25063 38.2685
CA -13.0903 9.81761 43.5649
CA -23.2167 1.23817 16.1014
CA 6.96996 -1.52168 55.6066
CA 8.41089 3.16698 65.1483
CA -6.29993 -38.0657 42.8451
CA -13.3125 -19.8704 70.1577
