489

CA -18.7597 13.3482 65.2824
CA -8.01647 6.67256 51.8624
CA -13.5696 -28.1429 32.3247
CA -15.4577 -5.61572 41.8074
CA -12.4342 -13.8271 62.5121
CA -18.4506 -19.0707 47.5664
CA -2.27505 -33.9971 69.1286
CA -8.88457 8.44629 48.6085
CA -1.24683 -17.5234 21.7698
CA -12.5798 -29.0442 47.773
CA -3.25042 -23.6703 67.702
CA -20.626 -18.2024 17.4519
CA -19.6977 -8.35031 57.9247
CA -11.1521 -25.9852 16.5312
CA -17.4501 -20.7605 52.037
CA -14.1237 -48.2291 64.3985
CA -7.98784 -43.0477 66.3399
CA -9.44478 -30.9178 54.1006
CA -26.8226 -3.96515 39.8463
CA 4.08425 -28.3025 50.0804
CA -1.2141 -22.3228 58.224
CA 14.9759 -19.7233 44.6428
CA -14.1503 -4.93768 12.0786
CA 7.6244 -2.30743 53.1651
CA -13.5815 -30.5649 33.0325
CA -20.4734 -1.36839 75.0777
CA -23.8811 3.92429 72.8666
CA -14.053 -24.8293 38.8134
CA -9.4567 -18.3693 47.9443
CA -12.9304 -31.982 59.4038
CA -5.11087 -21.3256 70.6411
CA -17.3137 -21.3243 17.6378
CA -19.6996 9.4272 63.2747
CA -8.8207 -5.16219 8.32076
CA -16.0551 -7.2398 17.8618
CA -4.97425 -26.1612 66.5663
CA -4.98128 -36.6769 56.0713
CA -13.9684 -9.84173 55.5693
CA -1.11544 1.45212 43.4902
CA -1.26014 11.1045 60.723
CA -26.3438 -23.491 61.8357
CA 11.6489 5.47849 68.1738
CA -0.640998 -27.5212 36.4615
CA 14.6734 -23.8699 37.4144
CA -16.1087 -27.6031 48.0595
CA -31.5768 -0.71937 57.0675
CA -9.38221 -29.0401 54.1551
CA -18.8337 -24.2423 52.3672
CA -17.5923 12.4487 63.0921
CA 6.80577 -0.272682 60.4909
CA 4.98505 -29.1343 51.4862
CA -5.5897 -8.55387 28.342
CA -7.02278 -13.4506 17.3622
CA -4.38538 7.49174 62.8914
CA 1.87132 -38.028 58.1726
CA -15.5737 -15.105 51.4063
CA -9.42641 -33.6315 68.3344
CA -6.52782 -6.53561 34.3965
CA -18.9877 8.09771 41.9823
CA -10.4475 -21.2715 49.3686
CA -15.4422 -27.7464 16.5131
CA -13.459 -5.32645 45.7297
CA -7.47323 -43.5446 41.5181
CA -10.0996 -0.929305 14.8195
CA -19.5871 -26.7902 22.309
CA -17.7048 -24.4593 63.9035
CA -17.2818 1.97477 77.0048
CA 26.883 -15.1767 64.0469
CA -29.0941 -0.30627 66.2617
CA -7.92239 -33.8701 61.9618
CA -9.58901 -14.2539 59.0908
CA -10.1325 -16.9787 15.9239
CA -2.2752 -16.1826 47.4646
CA -22.0017 -1.40109 79.7703
CA -7.15628 -12.546 46.0989
CA -5.55486 -33.1893 56.9155
CA -22.6283 3.7077 71.5172
CA -10.9359 -19.1219 14.4438
CA 2.52092 7.52361 42.8974
CA -23.0511 -4.69061 40.2068
CA 16.9365 -28.9974 33.9699
CA -32.0837 3.80933 66.1407
CA -1.98245 -40.7659 66.0076
CA -25.9764 3.67503 60.4314
CA -28.4875 5.13256 58.3405
CA 1.91938 -18.9879 54.5926
CA -5.35832 -16.7601 23.7623
CA -6.76937 -15.325 43.2683
CA -21.0743 -33.101 61.5251
CA -15.9543 -35.8884 34.0106
CA -15.6031 -39.3432 33.9
CA -27.2793 -4.63563 67.2763
CA -17.9666 -24.3825 36.4622
CA -17.2217 -25.0756 19.1686
CA -17.9031 -22.2613 42.8012
CA -20.2829 -7.1533 56.539
CA 22.672 -19.3728 48.0983
CA -4.66005 -24.7685 65.2267
CA -1.53187 -23.9711 70.4151
CA 0.908396 5.11294 43.0468
CA -1.34482 9.85097 62.5264
CA -7.1175 -31.5119 50.3069
CA 5.95099 7.63955 58.0513
CA -1.39882 -13.5173 52.5121
CA -25.1157 -3.62931 63.1887
CA -16.8523 -9.02621 48.5728
CA -8.49074 7.31241 37.6561
CA -14.8267 -18.8483 49.4329
CA -14.2198 -21.7702 37.2209
CA -4.37731 -37.8314 66.9128
CA -5.76242 -8.79561 31.755
CA 0.153385 -16.0917 33.2409
CA 10.1989 5.22539 62.7403
CA 1.59742 -37.4312 45.9474
CA -10.7843 -20.0716 46.2759
CA 3.81928 -16.0095 44.4926
CA -18.8202 2.80051 76.4473
CA -8.13879 2.6726 72.3889
CA -17.9216 0.111085 77.3149
CA -13.3015 -22.2145 54.0859
CA -14.4345 -33.0873 38.5398
CA -10.4754 -13.5099 45.2023
CA -8.15382 11.7743 77.8645
CA -21.7228 -30.6117 60.6987
CA 14.2085 -12.5961 48.6777
CA -6.97679 -44.8917 43.4689
CA -21.4375 -22.3278 20.1648
CA -15.8714 8.59799 40.9871
CA -15.6571 -18.5607 14.6383
CA -14.458 -10.4953 19.7318
CA -13.4801 -10.8757 21.8877
CA -12.5438 -29.0633 58.1351
CA -3.50129 -23.3571 49.6756
CA -9.37688 -41.6378 66.0502
CA -14.3434 -14.5874 69.9945
CA -25.1588 -15.1217 42.7112
CA -11.5469 -30.566 36.9264
CA -0.81102 -18.8718 55.0126
CA -22.7373 -14.8471 45.0257
CA -20.1246 16.4419 63.2793
CA -9.01696 10.9283 38.5928
CA -10.2987 -23.7891 63.6894
CA -19.6968 -12.6525 47.7403
CA -17.6001 -12.2768 64.4949
CA 2.59248 -0.176819 45.7373
CA -22.9208 8.16519 64
CA -16.7862 -25.268 38.4893
CA -16.7366 -44.17 36.6107
CA -12.1073 -12.7715 65.3863
CA -22.9978 12.0033 63.2095
CA -19.6397 -1.81695 14.2261
CA -1.5073 -33.4035 52.0139
CA -11.144 -18.6752 54.8213
CA -7.55647 -26.5921 67.8426
CA -10.6278 -21.3171 16.6907
CA -20.0108 -27.4409 39.7414
CA -25.439 -27.4182 59.7222
CA -6.48961 -40.8418 63.9135
CA -27.5431 1.47082 64.566
CA 9.60149 -23.7748 47.9986
CA -9.19336 -19.7227 20.1188
CA -15.9072 -23.0878 42.2527
CA -0.509602 -36.4581 46.6215
CA -3.17933 -23.9627 41.4414
CA 12.0632 -31.0479 54.0544
CA -23.3211 -10.4563 61.3329
CA -27.2971 5.55059 70.3584
CA -10.9061 -11.8844 68.0313
CA -8.97431 -1.1957 40.3136
CA -5.63773 -42.3803 40.3496
CA -0.0307257 8.88002 63.7287
CA -18.1087 -27.2548 59.2485
CA -6.25788 -41.6724 52.0507
CA -12.4373 -22.6497 20.1339
CA -1.59346 -21.8165 29.2038
CA -20.5657 -7.61134 37.4108
CA -25.8934 16.479 56.5098
CA -2.64902 -20.1973 56.477
CA -18.9983 -8.7412 53.3549
CA -8.67597 -14.9283 40.5427
CA -9.96458 -14.3524 55.6646
CA -8.2735 -9.21273 48.5947
CA -6.28095 -21.8972 53.3498
CA -22.1611 3.34417 64.6576
CA 1.48191 -16.7225 43.3551
CA -3.79837 8.76596 46.7732
CA -9.04081 -23.9657 22.7944
CA -28.7243 6.30442 59.7066
CA -5.41718 -40.8502 58.4667
CA -13.9689 9.2758 39.968
CA -5.27779 -12.1756 34.3501
CA -6.46721 -30.8421 43.8848
CA -13.1743 -4.97113 16.3536
CA -9.40334 -23.1217 55.6987
CA -7.51315 -5.18499 70.7681
CA -10.6786 15.5314 71.1319
CA -27.2784 5.3832 75.3024
CA 4.19723 -40.7272 58.3527
CA -15.1036 -27.2082 64.5975
CA -3.41838 -48.2471 68.2781
CA -30.2797 -6.81493 55.0561
CA -15.259 -39.7752 31.9251
CA 10.7358 -22.8758 49.5432
CA -8.37804 -40.144 58.9895
CA -3.55692 -44.2689 38.32
CA -5.41413 -36.737 61.9963
CA -10.688 2.74135 49.0554
CA 24.3262 -14.5436 62.6728
CA -8.85325 -18.7559 43.2322
CA 27.3153 -22.7864 45.8547
CA -2.51219 -11.2895 24.405
CA -13.4186 -41.4275 40.2641
CA -10.2453 10.6947 71.9776
CA 13.9006 -21.9178 42.9386
CA -4.52166 15.6081 56.0252
CA -7.60219 -21.2344 15.155
CA -15.3494 10.1529 46.2303
CA -6.69783 -10.5561 52.1778
CA -3.93567 -35.0987 48.8365
CA 1.14452 -15.6251 39.1901
CA -7.93941 16.7074 52.4137
CA -3.7917 7.57978 68.3334
CA -9.76802 -22.3712 58.4524
CA -3.03727 -14.7885 25.1043
CA 16.2068 -29.5127 37.6379
CA -14.9991 -5.53987 47.4823
CA -27.1844 -22.3905 44.3067
CA -11.5975 -45.5662 62.4684
CA -12.5375 -44.2082 65.1987
CA -13.5049 -9.62701 17.0895
CA -6.46012 12.7078 54.1882
CA -14.1874 -19.3136 47.1143
CA -5.15731 -20.4655 46.1988
CA -4.83424 -38.3182 55.0699
CA -5.7207 -10.151 42.8711
CA -13.5035 -2.24103 14.5918
CA 1.1601 -21.0581 54.5161
CA 5.35395 -14.7429 46.1528
CA -5.10645 -18.7858 50.0055
CA -12.6197 -33.1735 50.006
CA -11.8409 -18.6345 47.6699
CA -9.76671 7.08306 72.0567
CA -13.2082 -18.5401 68.5125
CA 2.96876 7.31285 60.0746
CA 1.13905 -26.0622 42.4506
CA 21.3042 -16.9436 43.4419
CA 6.81541 -16.3177 32.3289
CA 6.1432 -21.1981 54.6201
CA -2.17016 -21.5977 69.5918
CA 13.1144 -16.4647 52.4578
CA -13.6121 -16.6032 70.4478
CA -13.9851 -19.9879 53.2274
CA -0.768559 3.94504 49.862
CA 16.521 -22.8201 41.0499
CA -19.7077 -27.463 16.197
CA -19.6981 6.09082 37.5396
CA -17.3346 -21.8398 37.6261
CA -27.7901 -16.2281 46.1584
CA -8.09484 8.7882 53.8555
CA -30.286 5.8513 68.2605
CA -13.8967 -32.7733 36.4914
CA -23.8493 1.22746 57.4029
CA -12.7731 -12.8431 71.3897
CA -0.245441 7.49127 67.1947
CA -0.0971551 -35.8763 57.8421
CA -17.8855 -28.7758 52.1407
CA -11.4326 -41.0514 63.264
CA -7.55618 -22.515 65.3313
CA -26.7626 12.5741 59.2432
CA -3.57658 7.19556 51.0276
CA -15.2021 -42.5934 39.9607
CA -28.5323 -27.4449 58.89
CA 10.4236 2.58644 61.9202
CA -16.8268 -34.0566 53.551
CA -12.283 -7.73891 17.7155
CA -8.02438 7.0576 47.7065
CA 19.5948 -23.9765 52.1474
CA -8.31966 11.1087 36.6531
CA -13.7357 -2.30651 75.9339
CA 16.2126 -28.2789 54.8276
CA -13.0055 -26.0705 18.9915
CA -16.2296 -25.497 61.0557
CA -18.5735 -29.3167 29.6449
CA -4.17313 7.29705 54.3714
CA -6.02714 3.41856 70.5635
CA -15.309 -3.98969 14.9598
CA -16.3585 -33.6821 30.5434
CA -7.64561 -30.3709 55.4759
CA 0.960903 5.55815 61.9383
CA -5.10379 -9.06703 45.46
CA -9.19452 -2.60739 43.4044
CA 2.63953 -29.9688 38.359
CA -16.2308 -15.9927 63.9053
CA -13.7632 -22.7752 41.9016
CA 18.4047 -31.0821 36.0582
CA -4.26786 -4.83591 47.9938
CA -28.2568 -17.5639 47.6852
CA 26.1709 -21.1225 45.1468
CA -13.0377 -10.1716 61.6795
CA -15.5517 -33.4861 35.7329
CA -4.2735 -37.2798 47.0595
CA -28.092 1.98373 58.9523
CA -15.141 -37.2863 32.9446
CA -5.27065 -8.94024 50.0348
CA -2.80429 -34.5339 63.991
CA -24.7909 -10.4879 56.4711
CA -2.14625 -36.2335 60.0031
CA 15.4176 -26.7471 51.8957
CA -14.9724 -23.962 64.5937
CA -17.3798 -23.4312 20.5636
CA -8.3044 20.3234 78.2907
CA -10.8462 -23.6286 21.7511
CA -16.7431 -10.0706 38.9611
CA -7.52786 -32.7082 67.1041
CA 4.69878 6.67111 54.3544
CA -7.54682 -29.5511 34.3993
CA -8.27186 -22.9108 57.2121
CA -4.47166 7.57321 59.8369
CA -19.6432 -23.7614 38.5483
CA 22.9295 -12.1617 58.2575
CA -13.6104 -10.3867 53.4604
CA 8.05519 -41.2641 69.805
CA 18.8071 -16.3052 50.9045
CA -11.6985 -33.7426 69.8873
CA -11.924 -5.14908 11.1758
CA 19.2795 -14.4416 47.0959
CA 10.1979 -28.7716 49.7964
CA -10.4052 -41.9045 39.7045
CA -10.1426 -30.8975 59.1045
CA -2.59566 6.58523 37.159
CA 6.18392 -13.4046 35.3088
CA -11.6439 -30.9561 56.154
CA 3.75195 -40.1004 69.7685
CA -15.1198 -31.6941 31.7437
CA 6.58116 -41.2945 65.8802
CA -1.66763 -8.43334 26.6801
CA 2.68128 -14.1802 42.5626
CA -11.0877 -27.8717 60.1309
CA -14.9089 6.71232 40.0277
CA -1.16934 -0.681667 67.9708
CA -9.51022 -17.0223 63.3436
CA -3.12648 -22.0431 33.7467
CA -6.46945 -17.3607 22.0407
CA -13.1364 -28.3661 15.5443
CA -2.02546 5.24187 46.9786
CA 1.97057 -17.4552 35.2043
CA -1.42071 4.04987 65.1039
CA -19.2733 -17.1612 49.0507
CA -19.1367 -7.57129 15.082
CA -16.431 -14.7211 62.4733
CA -33.228 -7.71711 55.9958
CA -14.7257 -6.34262 15.8692
CA -27.7108 -19.6197 40.6665
CA -1.15034 2.91037 66.7604
CA 2.10443 -33.4 47.4415
CA -13.8209 -2.71852 17.8284
CA -16.2368 -20.055 36.7197
CA 0.22126 -14.5665 53.2146
CA -5.28087 -22.1701 13.6044
CA 3.82519 -11.5329 48.6665
CA -12.0239 -13.9372 55.2762
CA -23.3819 -6.01718 64.1782
CA -4.70265 -8.62629 24.3577
CA -10.1888 0.539194 37.8294
CA 18.8286 -20.7148 48.7926
CA -7.69662 11.3417 75.1376
CA -25.2205 6.74381 64.9314
CA 0.232232 -31.0576 47.8358
CA -15.4704 -26.8835 41.1503
CA -29.3062 4.24855 69.3092
CA -2.64729 -37.6914 57.3658
CA -2.22168 0.987047 68.0049
CA -10.1009 -9.75313 53.034
CA -13.0022 1.85108 74.4903
CA -4.10662 -13.0301 27.1486
CA 0.505959 10.3936 67.2487
CA -0.577638 9.31072 60.7752
CA -14.175 12.8286 41.2266
CA -0.434145 -36.1971 69.3909
CA 8.8636 -0.56982 53.1228
CA -16.781 -30.6476 31.1838
CA 2.16057 -14.95 24.4467
CA 17.4534 -24.6329 37.444
CA -19.9319 -23.0553 41.4556
CA 3.97993 -38.1327 63.1917
CA -13.3963 -16.2325 67.6073
CA -28.2805 -11.0841 54.3047
CA -3.15904 0.126125 50.0964
CA -6.89449 -10.1991 40.5629
CA -4.59741 -17.6529 51.419
CA -15.5843 6.62861 43.9343
CA -10.6644 -32.243 66.5169
CA -10.15 -37.8341 41.9755
CA -13.3646 -8.40194 37.1074
CA -32.1299 6.5919 58.0376
CA -6.84182 -31.92 40.3278
CA -28.5983 -7.53603 40.3258
CA -13.4437 -27.4798 37.826
CA -1.63578 -46.9822 63.2843
CA -17.9402 -27.0523 63.4228
CA -16.3667 -11.1701 69.5063
CA -3.65992 -14.15 34.5576
CA -4.96697 8.52518 39.7206
CA -10.0983 -19.9245 59.5438
CA -6.20484 -10.0355 22.9177
CA -10.2221 -20.8057 63.3623
CA -8.00641 -13.9186 62.6654
CA 0.786231 -41.5658 59.2466
CA -8.11864 12.868 38.8882
CA -19.5316 -25.6186 63.4939
CA -25.4139 -27.9838 15.242
CA -15.1699 -20.6086 55.9902
CA -16.0011 -49.5985 61.77
CA 11.0112 -0.800732 56.8873
CA -2.64803 -33.4283 56.3568
CA -13.3876 -36.6807 67.0179
CA -5.21344 -24.4243 42.0779
CA -12.5161 -36.2023 68.7259
CA 0.193151 -20.6578 56.999
CA -7.44582 -10.2346 21.4285
CA -8.85338 -12.8365 53.3251
CA -12.554 -16.3291 52.4748
CA -5.29397 -15.8011 47.3187
CA -9.57898 -10.6765 44.8982
CA 4.66751 1.77438 60.0613
CA -13.4215 -40.2715 59.4205
CA 3.44408 -16.2545 24.9401
CA -10.737 -32.512 57.4442
CA -13.4973 -39.7414 68.7739
CA -7.67853 15.8904 72.5508
CA 6.54966 -15.0312 36.3688
CA -5.5527 -8.49538 47.3371
CA -18.6983 -23.182 17.8756
CA -25.5849 -14.1256 56.5939
CA -8.05116 -15.6725 64.5492
CA -17.8412 -14.4128 65.2688
CA -8.36392 -3.13716 75.7155
CA -7.6705 -39.6643 69.874
CA -12.553 -19.8643 16.5546
CA -6.3473 -10.7819 46.3317
CA -23.0722 18.0917 65.5601
CA -2.92395 -38.34 55.6101
CA -5.09247 -34.0747 44.7689
CA -11.8574 -14.7094 65.3923
CA -16.5511 4.23752 78.0231
CA -11.4684 -26.7189 51.0308
CA -21.421 18.7479 62.1234
CA -9.51387 -7.48438 18.5669
CA -11.9938 -35.2146 46.1326
CA -16.2603 -8.45487 15.0487
CA -3.26706 -45.7767 67.4049
CA -27.0438 -20.3055 46.3321
CA 3.0193 0.859557 62.1973
CA -7.25066 -38.632 58.3951
CA -7.7662 -20.6301 44.2201
CA -0.173323 -32.1481 49.227
CA -18.7059 -30.9457 50.0993
CA 12.0881 -24.634 49.2665
CA -12.6911 -18.3604 17.8795
CA -14.5994 -26.7516 57.7047
CA -15.9997 -35.8056 52.9768
CA -9.21445 8.82814 73.7565
CA -5.0234 -36.1333 45.4004
CA 21.9442 -13.2636 52.6614
CA -4.89514 -4.60195 37.6599
CA -10.0686 -14.5103 41.7824
CA -20.7993 -3.58825 10.5482
CA -11.8092 -42.5398 66.5291
CA 21.8072 -17.832 46.915
CA -17.2526 -32.1712 33.4614
CA -6.69722 -17.1375 46.183
CA -24.5118 9.55674 59.5788
CA -1.03449 -27.2584 59.418
CA -24.1795 -17.9997 49.7556
CA -8.66202 3.08084 35.5148
CA -9.27178 -13.289 13.6391
CA -25.6571 -26.6094 61.7571
CA -7.64099 -32.5958 44.4826
CA -3.06551 -33.3794 73.2984
CA -8.0161 -8.64179 19.5308
CA -4.08439 -27.3747 35.7755
CA -28.5623 -18.2921 45.0418
CA -5.32492 -8.25063 38.2685
CA -13.0903 9.81761 43.5649
CA -23.2167 1.23817 16.1014
CA 6.96996 -1.52168 55.6066
CA 8.41089 3.16698 65.1483
CA -3.17172 -11.4691 40.9172
CA -12.2899 -11.8302 59.8587
