489

CA -8.87269 -1.69746 11.5861
CA -8.01647 6.67256 51.8624
CA -2.60205 -20.0517 51.0982
CA -15.4577 -5.61572 41.8074
CA -12.4342 -13.8271 62.5121
CA -16.2346 -15.3679 73.9477
CA -2.27505 -33.9971 69.1286
CA 5.88131 9.31143 60.8173
CA 7.73712 5.29891 46.4638
CA -9.08531 5.10238 69.5384
CA -3.25042 -23.6703 67.702
CA -20.626 -18.2024 17.4519
CA -19.6977 -8.35031 57.9247
CA -11.1521 -25.9852 16.5312
CA -17.4501 -20.7605 52.037
CA -13.2201 -37.0935 69.2046
CA -7.98784 -43.0477 66.3399
CA -9.44478 -30.9178 54.1006
CA -26.8226 -3.96515 39.8463
CA -23.4906 -4.21382 61.3079
CA -33.0696 0.38143 65.9029
CA 14.9759 -19.7233 44.6428
CA -14.1503 -4.93768 12.0786
CA 7.6244 -2.30743 53.1651
CA -13.2541 -20.9404 47.1868
CA -10.9517 -18.8905 20.1577
CA -9.5699 -26.5196 47.1885
CA -2.72416 5.72725 56.715
CA -24.1009 -20.0004 18.9128
CA -12.9304 -31.982 59.4038
CA -5.11087 -21.3256 70.6411
CA -17.3137 -21.3243 17.6378
CA -11.5648 -26.5279 47.8528
CA -16.7782 -17.4698 48.8762
CA 18.4685 -23.0694 50.0841
CA -16.3257 -0.341806 75.7468
CA 2.05734 -41.076 67.1654
CA -28.1246 2.52338 62.2504
CA -1.11544 1.45212 43.4902
CA -1.26014 11.1045 60.723
CA 25.6104 -19.1737 45.172
CA 11.6489 5.47849 68.1738
CA -7.2213 -41.4893 57.4714
CA 14.6734 -23.8699 37.4144
CA -16.9046 -16.1242 40.891
CA -7.47205 13.4292 78.8343
CA -9.38221 -29.0401 54.1551
CA 13.6554 -19.1543 40.4752
CA -13.8713 -39.4653 35.8545
CA 6.80577 -0.272682 60.4909
CA 4.98505 -29.1343 51.4862
CA -5.5897 -8.55387 28.342
CA -7.02278 -13.4506 17.3622
CA -12.5733 -10.6348 19.1182
CA 1.87132 -38.028 58.1726
CA -0.675505 -21.5168 49.3013
CA -6.54393 -35.5539 57.7898
CA -8.80806 16.3934 77.2108
CA -18.9877 8.09771 41.9823
CA -8.39481 -35.1501 49.5616
CA -25.9138 18.9094 63.3843
CA -13.459 -5.32645 45.7297
CA 2.80962 -32.3714 53.9447
CA -10.0996 -0.929305 14.8195
CA -19.5871 -26.7902 22.309
CA -17.7048 -24.4593 63.9035
CA -17.2818 1.97477 77.0048
CA -16.3931 -19.5652 12.7304
CA -7.14269 -1.56149 48.1803
CA -28.5802 -19.2046 49.408
CA -13.8329 -2.35056 69.12
CA -10.1325 -16.9787 15.9239
CA -2.2752 -16.1826 47.4646
CA 6.11638 3.71132 47.8539
CA -17.3585 -34.9135 50.7061
CA -5.55486 -33.1893 56.9155
CA -22.6283 3.7077 71.5172
CA -18.9202 -40.3665 33.0472
CA 2.33028 -41.1877 65.3008
CA -23.0511 -4.69061 40.2068
CA 1.54006 -15.2639 22.209
CA -6.66032 -10.6289 49.2135
CA -12.9956 -26.5927 14.5221
CA -15.6678 -18.2765 52.8544
CA -15.6371 -37.2069 42.8424
CA 1.91938 -18.9879 54.5926
CA -5.35832 -16.7601 23.7623
CA -15.0438 -23.5586 56.9402
CA -31.8597 -31.7741 60.1457
CA -30.5332 -21.7004 44.6662
CA -1.39592 -11.1309 27.4373
CA 15.3222 0.788254 57.9669
CA -3.28731 -10.9136 42.3705
CA -10.2995 -32.7594 34.5
CA -22.2948 -0.814777 42.7897
CA -20.2829 -7.1533 56.539
CA -10.3941 -36.48 60.671
CA -4.66005 -24.7685 65.2267
CA 12.1724 -20.2894 44.6391
CA -5.22128 -20.1899 57.7626
CA 7.35953 -23.9792 47.1213
CA -1.64034 3.64993 69.1591
CA 5.95099 7.63955 58.0513
CA -1.39882 -13.5173 52.5121
CA -9.36437 -45.9264 66.7478
CA -16.8523 -9.02621 48.5728
CA -8.49074 7.31241 37.6561
CA -20.6685 -18.1185 19.5501
CA -20.0743 1.77337 76.8908
CA -4.37731 -37.8314 66.9128
CA -14.432 -32.5295 58.3904
CA 0.153385 -16.0917 33.2409
CA -2.34048 -22.2161 50.7163
CA -10.427 -38.5572 66.9822
CA -10.7843 -20.0716 46.2759
CA -14.5251 -14.2645 39.0425
CA -14.2648 -23.6835 40.6203
CA 0.153855 -12.9375 32.5139
CA -17.9216 0.111085 77.3149
CA -16.0344 -34.0837 48.1269
CA -25.8068 -15.5662 47.0299
CA -29.4783 -29.7507 54.032
CA -8.15382 11.7743 77.8645
CA -21.7228 -30.6117 60.6987
CA 14.2085 -12.5961 48.6777
CA -26.8035 -7.3854 62.8327
CA -22.9317 -3.64661 55.967
CA -15.6764 -34.0395 50.9079
CA -13.8603 -17.5047 50.3507
CA 4.88448 -16.3717 34.0353
CA -13.4801 -10.8757 21.8877
CA -0.830238 -40.4657 57.2031
CA -12.643 -45.0295 65.4802
CA 0.0981759 -42.6036 56.9637
CA 3.50167 5.99696 57.9249
CA -17.0846 -5.14494 8.20162
CA -4.65207 -12.0055 17.18
CA -17.2501 -29.9786 46.9848
CA -22.7373 -14.8471 45.0257
CA -20.1246 16.4419 63.2793
CA -30.859 5.99593 70.5032
CA -21.6336 18.7237 59.9577
CA -19.6968 -12.6525 47.7403
CA -2.79816 -23.6017 55.5005
CA -8.31217 -9.80472 57.6132
CA -22.9348 -24.4219 19.6664
CA -17.2008 -28.6369 57.1341
CA -16.7366 -44.17 36.6107
CA -12.1073 -12.7715 65.3863
CA 0.129978 -34.8441 67.9447
CA -19.6397 -1.81695 14.2261
CA -1.5073 -33.4035 52.0139
CA 10.8412 -22.3897 46.9129
CA 1.61537 -19.1169 38.3633
CA -4.42752 -13.7701 46.158
CA -36.6896 -7.4128 54.301
CA -14.0272 -21.7967 50.3093
CA -3.23285 -9.54452 50.1082
CA 1.0616 -38.36 55.5842
CA 9.60149 -23.7748 47.9986
CA -23.915 11.7237 63.984
CA -15.9072 -23.0878 42.2527
CA -0.509602 -36.4581 46.6215
CA -3.17933 -23.9627 41.4414
CA -19.282 13.2753 64.129
CA -11.9948 -19.7971 67.6925
CA -29.7487 4.23656 65.9122
CA -10.9061 -11.8844 68.0313
CA -8.97431 -1.1957 40.3136
CA -5.63773 -42.3803 40.3496
CA -0.0307257 8.88002 63.7287
CA -18.1087 -27.2548 59.2485
CA -8.60865 12.8816 55.1964
CA -12.4373 -22.6497 20.1339
CA -18.1587 -12.6637 57.5588
CA -20.5657 -7.61134 37.4108
CA -20.9779 -2.72173 43.1849
CA -2.64902 -20.1973 56.477
CA -18.9983 -8.7412 53.3549
CA -16.721 -24.7406 16.9017
CA -9.96458 -14.3524 55.6646
CA -13.9366 -33.109 31.4453
CA -12.4925 -9.33583 20.4389
CA -22.1611 3.34417 64.6576
CA -3.32488 -15.0193 28.6506
CA -22.9919 -27.7739 20.1582
CA -12.5147 -16.3021 20.802
CA -9.8426 -44.3628 40.5697
CA -5.41718 -40.8502 58.4667
CA -28.0397 -9.23563 51.3251
CA -14.6153 -10.2991 40.4331
CA -6.46721 -30.8421 43.8848
CA 1.81258 -33.9182 60.6532
CA -14.7983 -9.49124 73.7981
CA -8.1211 -33.2557 31.3033
CA -24.4496 -1.20067 42.777
CA -3.12571 -0.303661 43.0924
CA -3.82307 -8.61903 26.4512
CA -15.1036 -27.2082 64.5975
CA 5.78537 -32.6698 44.5648
CA -30.2797 -6.81493 55.0561
CA -15.259 -39.7752 31.9251
CA 10.5759 3.79577 66.3572
CA -19.6949 -15.23 18.9334
CA 1.25017 -34.5216 57.5635
CA -18.1969 -21.7632 50.4217
CA -8.14264 -8.80093 30.5546
CA -23.8131 -31.0268 24.3287
CA -1.49748 -29.2046 62.4666
CA -7.17428 7.14024 69.8508
CA -11.682 -19.2402 57.6608
CA -5.97229 -46.5599 42.1513
CA -15.6423 -0.196218 72.653
CA 13.9006 -21.9178 42.9386
CA -17.3807 -28.4517 44.5711
CA -5.62988 6.40885 64.1293
CA -25.1968 2.51679 68.1038
CA -6.69783 -10.5561 52.1778
CA 1.46478 -14.4604 44.1951
CA 16.8412 -26.3311 37.4224
CA -7.93941 16.7074 52.4137
CA -8.44388 -34.9963 66.3588
CA -9.76802 -22.3712 58.4524
CA -33.7514 -2.23481 62.2692
CA 13.0212 3.92196 59.923
CA -17.0381 7.85604 40.5492
CA -27.1844 -22.3905 44.3067
CA -11.5975 -45.5662 62.4684
CA -9.80028 -19.3029 66.6543
CA -13.5049 -9.62701 17.0895
CA 12.597 -17.0347 41.8562
CA -16.0457 -6.25771 15.8709
CA -16.3327 -18.5636 18.2003
CA -4.83424 -38.3182 55.0699
CA -5.7207 -10.151 42.8711
CA -31.8669 -29.6527 57.872
CA -24.3023 22.0597 63.5268
CA 5.35395 -14.7429 46.1528
CA -5.10645 -18.7858 50.0055
CA -12.6197 -33.1735 50.006
CA -8.57064 -19.3926 51.3744
CA -9.76671 7.08306 72.0567
CA -8.93736 -18.9924 17.7775
CA 2.96876 7.31285 60.0746
CA 1.13905 -26.0622 42.4506
CA -7.89829 -7.1317 48.4309
CA -18.0181 -12.5125 13.2616
CA 6.1432 -21.1981 54.6201
CA -2.09169 -22.4382 33.5005
CA 13.1144 -16.4647 52.4578
CA -14.1148 -7.64127 41.2704
CA -13.9851 -19.9879 53.2274
CA -0.768559 3.94504 49.862
CA -34.0246 2.85442 71.9006
CA -13.3034 -40.4611 43.6404
CA -19.6981 6.09082 37.5396
CA -13.7011 -35.9167 62.8302
CA -3.94769 -3.20237 50.2875
CA 10.0924 -24.951 51.1022
CA -20.1094 18.9979 64.1791
CA -20.5497 -43.6044 30.726
CA -23.8493 1.22746 57.4029
CA -22.9395 -28.1221 23.3828
CA -0.245441 7.49127 67.1947
CA -4.13211 -39.774 62.1462
CA -1.97981 -15.216 30.5698
CA -11.4326 -41.0514 63.264
CA -13.8027 2.02395 11.5977
CA -18.06 -36.3048 54.3009
CA -26.3933 -12.0089 51.5628
CA 0.848896 -27.1205 51.8561
CA -28.5323 -27.4449 58.89
CA 10.4236 2.58644 61.9202
CA -16.8268 -34.0566 53.551
CA -13.7183 -11.9028 72.4383
CA 7.05089 -19.0514 35.8732
CA -14.0693 -26.744 47.5134
CA -8.31966 11.1087 36.6531
CA -6.1591 -13.6947 39.1064
CA -14.5397 -38.1713 73.2201
CA -25.9411 -3.9834 56.6827
CA -7.36676 -14.6414 71.4239
CA -11.9539 -28.706 42.7093
CA -10.0168 -16.7394 18.0122
CA -6.02714 3.41856 70.5635
CA -15.309 -3.98969 14.9598
CA -16.3585 -33.6821 30.5434
CA -2.49234 -13.137 23.455
CA -8.7739 8.93316 78.2899
CA -5.10379 -9.06703 45.46
CA -9.19452 -2.60739 43.4044
CA 1.54321 -24.4654 45.1497
CA -11.2743 -36.9975 43.6712
CA -9.82119 -12.3336 24.0895
CA -8.58071 9.33064 59.8256
CA -18.4437 -10.4917 40.0732
CA -28.2568 -17.5639 47.6852
CA -26.1576 5.26798 71.6016
CA -13.8132 -24.2105 51.2422
CA -15.5517 -33.4861 35.7329
CA 11.2481 3.95345 57.7077
CA -28.092 1.98373 58.9523
CA -3.46609 -18.3315 52.3214
CA -2.55735 -7.93665 34.9364
CA -6.66435 -32.5707 46.0856
CA -7.4594 15.2923 37.0868
CA -26.4462 -9.7032 54.1786
CA 15.4176 -26.7471 51.8957
CA -10.0355 10.8279 76.9479
CA -17.3798 -23.4312 20.5636
CA -8.3044 20.3234 78.2907
CA -12.5058 -33.9317 41.2203
CA -16.7431 -10.0706 38.9611
CA -7.52786 -32.7082 67.1041
CA -17.0955 -51.0411 62.6034
CA -3.3345 -8.50807 46.0602
CA -12.6429 -35.9794 50.8765
CA -4.47166 7.57321 59.8369
CA -18.1641 -9.48529 47.2693
CA -18.366 20.5396 60.0825
CA -13.6104 -10.3867 53.4604
CA 2.94645 -16.3276 41.3215
CA 18.8071 -16.3052 50.9045
CA -11.6985 -33.7426 69.8873
CA -12.8606 -40.0435 32.6649
CA 19.2795 -14.4416 47.0959
CA 10.1979 -28.7716 49.7964
CA -10.4052 -41.9045 39.7045
CA -20.9959 -23.198 15.8337
CA -9.1444 10.5374 55.7677
CA -10.6777 -6.19137 15.7763
CA -11.6439 -30.9561 56.154
CA 3.75195 -40.1004 69.7685
CA -15.966 -35.0343 39.994
CA -15.5707 -30.0886 60.6291
CA -1.66763 -8.43334 26.6801
CA -22.4782 -6.63437 59.2638
CA -11.0877 -27.8717 60.1309
CA -1.02935 -22.7575 52.0572
CA 1.04645 -17.8323 36.7749
CA -17.2268 1.14566 81.5363
CA -16.0238 -1.1803 68.6776
CA -6.46945 -17.3607 22.0407
CA -13.1364 -28.3661 15.5443
CA -0.166529 -27.452 38.337
CA 1.97057 -17.4552 35.2043
CA -8.40867 -18.7863 43.3056
CA -10.0682 3.13625 70.6743
CA -19.1367 -7.57129 15.082
CA -15.6859 -31.2237 36.3244
CA -33.228 -7.71711 55.9958
CA 4.08244 -18.5065 37.0397
CA -27.7108 -19.6197 40.6665
CA -16.5688 -26.0332 50.9284
CA -29.7346 2.73414 64.6701
CA -1.68992 -36.2657 61.5506
CA -19.1507 -19.2334 44.568
CA 0.22126 -14.5665 53.2146
CA 1.61952 -20.463 25.4701
CA 9.56403 -0.888737 55.6373
CA 1.85233 -38.4101 60.0637
CA -23.3819 -6.01718 64.1782
CA -10.0875 -7.76213 14.2333
CA 12.5294 2.56961 63.5964
CA 18.8286 -20.7148 48.7926
CA -8.87664 -4.36571 47.0139
CA -25.2205 6.74381 64.9314
CA -9.30619 9.79918 53.0021
CA -17.0761 -49.6763 59.3435
CA -29.3062 4.24855 69.3092
CA -12.9716 -22.7533 44.7894
CA -2.22168 0.987047 68.0049
CA -13.4387 -30.4947 41.086
CA -13.0022 1.85108 74.4903
CA 0.48258 -39.4086 58.7315
CA -1.09245 -37.8016 57.4201
CA -27.4372 4.82407 60.5552
CA -10.5037 -12.4572 54.5032
CA -0.434145 -36.1971 69.3909
CA 5.23289 2.81109 61.8866
CA -16.781 -30.6476 31.1838
CA 4.61104 -18.0847 27.9547
CA -4.02691 -13.7728 48.8601
CA -19.9319 -23.0553 41.4556
CA 3.97993 -38.1327 63.1917
CA 20.5064 -28.6534 37.3148
CA -17.7565 -37.4014 50.1118
CA -3.15904 0.126125 50.0964
CA 2.42582 -21.2792 27.8298
CA 14.5852 -25.7454 37.2589
CA -15.5843 6.62861 43.9343
CA -10.6644 -32.243 66.5169
CA -10.15 -37.8341 41.9755
CA -7.29305 -21.943 47.4956
CA -9.8729 11.2697 41.8749
CA -8.43521 6.86298 75.6469
CA -28.5983 -7.53603 40.3258
CA -0.0707729 -14.3944 25.8566
CA -3.55879 -20.3039 33.0162
CA -0.954957 -39.6516 61.897
CA -16.3667 -11.1701 69.5063
CA -30.137 -18.1036 47.7128
CA -4.96697 8.52518 39.7206
CA -10.0983 -19.9245 59.5438
CA -11.0652 -10.8298 70.3465
CA -10.2221 -20.8057 63.3623
CA -8.00641 -13.9186 62.6654
CA 0.786231 -41.5658 59.2466
CA -7.26024 0.745095 37.8347
CA 2.04867 10.2079 65.5763
CA -15.1792 -4.65715 76.9291
CA 0.233327 -31.9935 44.6165
CA 1.87803 4.22296 46.3582
CA -13.3436 -24.6253 45.1453
CA -2.64803 -33.4283 56.3568
CA -13.3876 -36.6807 67.0179
CA -5.21344 -24.4243 42.0779
CA 19.7556 -17.3661 46.6574
CA -5.06714 -17.2017 55.0686
CA 13.6588 -10.9884 49.3343
CA -4.82123 -44.9721 41.8786
CA -18.1277 -1.89483 81.0673
CA -12.9856 -28.9504 58.0117
CA -9.57898 -10.6765 44.8982
CA -9.70947 4.72855 74.892
CA -13.4215 -40.2715 59.4205
CA 3.44408 -16.2545 24.9401
CA 17.2938 -21.4489 45.4047
CA -24.399 9.75226 61.7111
CA 5.42352 -37.0437 69.2474
CA 6.54966 -15.0312 36.3688
CA -22.2638 -7.969 62.9004
CA -18.6983 -23.182 17.8756
CA -15.4017 -47.553 59.4517
CA -2.25672 -19.722 65.3019
CA -6.23792 -36.7434 70.1733
CA -6.14785 23.7118 77.1017
CA -20.3868 4.64323 82.2647
CA -12.553 -19.8643 16.5546
CA -16.952 -5.16947 56.3176
CA -30.5575 -25.9531 62.9455
CA -3.63288 -23.9236 52.1255
CA -25.4678 7.98234 58.7741
CA -11.8199 -12.29 40.467
CA -11.3785 -9.46405 38.1248
CA -11.4684 -26.7189 51.0308
CA -1.9775 -43.8188 40.196
CA 11.3854 2.17025 60.1699
CA -11.9938 -35.2146 46.1326
CA -16.2603 -8.45487 15.0487
CA -3.26706 -45.7767 67.4049
CA -24.4567 -9.27877 63.3948
CA 3.0193 0.859557 62.1973
CA -19.0259 -17.5711 16.6228
CA -17.5621 -11.1063 18.9356
CA -0.173323 -32.1481 49.227
CA -18.7059 -30.9457 50.0993
CA 12.0881 -24.634 49.2665
CA -25.9377 -6.73961 58.2247
CA -14.5994 -26.7516 57.7047
CA -15.9997 -35.8056 52.9768
CA -16.0531 -38.101 57.9105
CA -21.8987 -16.196 15.9866
CA -4.31252 -10.166 30.3754
CA -4.89514 -4.60195 37.6599
CA -14.0536 -16.8878 9.91221
CA -6.74035 -37.0808 63.3401
CA -9.57261 -6.80307 39.1208
CA 21.8072 -17.832 46.915
CA -9.29649 -22.0099 65.1798
CA -6.69722 -17.1375 46.183
CA -24.5118 9.55674 59.5788
CA -1.03449 -27.2584 59.418
CA -6.02046 -33.0812 69.8117
CA -8.66202 3.08084 35.5148
CA 7.67348 -12.6142 32.7699
CA -25.6571 -26.6094 61.7571
CA -8.66626 -35.8424 47.4943
CA -3.06551 -33.3794 73.2984
CA -8.0161 -8.64179 19.5308
CA -7.17951 14.9223 77.194
CA -3.39837 -20.6638 69.4198
CA -13.1646 -34.1817 44.9755
CA -14.6365 -12.2629 67.8963
CA -4.02879 5.36336 49.5321
CA -13.4598 10.2934 42.7005
CA -6.3189 -11.0561 25.3424
CA -11.9767 -37.304 62.7736
CA -12.2899 -11.8302 59.8587
