489

CA -8.87269 -1.69746 11.5861
CA -8.01647 6.67256 51.8624
CA 0.904574 -42.4985 64.1729
CA -15.3654 -36.3392 71.3641
CA -22.9961 -11.4333 56.3636
CA -1.50389 -17.4092 26.6787
CA 5.31302 4.15572 63.4487
CA 1.29838 -14.0359 40.3365
CA 0.606891 -39.9841 65.4036
CA -10.0037 -15.8135 24.7355
CA 15.8866 -18.2242 51.1418
CA -20.626 -18.2024 17.4519
CA -23.5303 -13.1612 56.6714
CA 17.1513 -23.5046 36.6853
CA 14.8076 -23.1234 49.229
CA 6.2745 -16.307 47.8698
CA -26.42 9.1195 71.3324
CA -19.8493 -21.8301 28.8849
CA -3.11282 2.36024 44.5606
CA -10.7112 -9.81412 72.8472
CA -6.27772 -3.81902 36.9785
CA -11.2392 -21.5652 52.7254
CA 3.18644 -18.2571 48.8456
CA -34.6771 -18.5314 54.4937
CA -9.59949 -47.5537 44.106
CA -5.17151 -30.0923 36.5469
CA -13.642 -41.5848 63.0778
CA 12.697 1.50951 67.1166
CA -2.28907 -26.8961 61.3466
CA -35.7797 -25.2506 56.0528
CA -18.0782 -12.2699 60.8909
CA -6.89576 -28.7751 39.3802
CA 16.9387 2.36681 66.4649
CA -27.5707 -15.7764 47.006
CA -0.786504 5.83016 73.4944
CA 1.52998 -19.8073 50.2334
CA -16.1322 -13.107 70.0314
CA -1.2561 7.93836 70.5785
CA -1.11544 1.45212 43.4902
CA -7.13025 -27.2634 53.5132
CA -31.4649 -6.75338 44.2073
CA -15.3051 -22.717 50.5592
CA -14.0042 -1.70683 14.8519
CA -31.0567 -6.07818 60.3709
CA -13.3806 -18.5066 19.7375
CA -10.8898 -23.4302 53.3358
CA -15.5432 -11.9816 47.4023
CA -23.9276 -4.02156 60.1493
CA -4.39973 -16.256 43.808
CA -13.6409 -15.2803 18.2615
CA -20.2427 -20.5732 46.148
CA 6.83632 -17.4826 56.3361
CA -3.91893 -21.6556 66.7938
CA 14.8942 -23.8223 37.7338
CA 11.9855 -26.0088 50.5491
CA 5.90381 -21.4608 49.6728
CA -33.6457 1.79849 54.4517
CA -20.3951 12.7433 51.4411
CA -18.9877 8.09771 41.9823
CA 12.7075 3.88161 68.1387
CA 7.35792 -29.3019 38.7124
CA -5.80497 -15.8395 47.8057
CA 5.89935 -26.3485 58.064
CA -10.0996 -0.929305 14.8195
CA -14.7369 -16.3445 74.5969
CA -18.5058 -38.3755 32.9859
CA 12.8704 1.39925 64.0153
CA -16.2318 -9.94221 19.4281
CA -16.075 -21.6545 78.132
CA -12.0443 -10.2306 22.8368
CA -21.0759 16.8009 73.7103
CA -3.62983 -5.22911 34.5302
CA -19.6366 -10.8673 80.3706
CA -25.1133 12.6291 58.8471
CA -8.09375 -7.70785 68.6647
CA -4.04326 2.38455 31.3998
CA -6.63374 -23.5045 58.5714
CA -18.9202 -40.3665 33.0472
CA 2.33028 -41.1877 65.3008
CA -23.0511 -4.69061 40.2068
CA -23.0048 10.6765 41.106
CA -19.6794 -22.0161 20.9128
CA 9.98701 -4.13169 70.3061
CA 20.0044 -22.4856 40.567
CA -15.6371 -37.2069 42.8424
CA -28.3864 0.493711 54.3378
CA -14.8246 -25.198 70.7765
CA 2.30297 -21.9968 56.7842
CA 18.632 -21.7778 36.3686
CA -11.1213 -15.5455 48.7801
CA -10.4102 -5.36343 56.8284
CA -15.1467 -2.17012 45.3589
CA 21.7335 -17.2571 48.6879
CA -9.76224 -33.7764 56.9623
CA -16.8065 -30.4391 51.0718
CA 3.90593 -23.3549 56.448
CA -10.8939 -2.15448 63.704
CA -2.87292 -40.8144 58.683
CA -13.7596 10.7936 38.8609
CA -8.90746 -38.2761 51.3929
CA 7.35953 -23.9792 47.1213
CA -13.8492 -19.1003 76.0374
CA 5.95099 7.63955 58.0513
CA -23.4291 9.27121 68.6231
CA -10.0284 -9.70504 62.1021
CA 8.98255 -26.1907 43.8533
CA -18.7318 17.2505 69.0182
CA -20.6685 -18.1185 19.5501
CA -13.789 -22.188 41.8658
CA 2.02187 -31.2562 50.4166
CA -9.15473 -21.5237 53.5418
CA -14.2077 -34.2426 54.1939
CA -5.62236 -38.8882 59.9502
CA -17.6897 11.801 49.7035
CA -10.7843 -20.0716 46.2759
CA -19.8458 9.81654 42.9024
CA 4.91589 6.45859 66.8384
CA -26.0064 -19.4194 52.0868
CA -14.3083 -22.6016 17.2395
CA -12.8812 -31.9354 54.8011
CA -7.65261 -33.293 45.439
CA -23.0143 -4.51985 69.3573
CA 4.01421 -35.0927 64.395
CA -12.4902 -16.1882 22.7165
CA -30.6635 -4.24957 47.1367
CA -26.8035 -7.3854 62.8327
CA -22.9317 -3.64661 55.967
CA 8.18953 -29.7098 58.9464
CA 1.54802 -17.734 41.7199
CA -1.08853 -11.5689 40.3185
CA -2.56434 -39.8476 62.8611
CA -32.7183 -24.4173 51.2804
CA -14.4645 -37.5366 21.9786
CA -6.27718 -12.8008 26.8257
CA 19.595 -21.0031 33.9096
CA -22.1699 -7.78701 62.7967
CA -8.52336 -6.9722 44.3185
CA -5.0612 7.92045 45.111
CA -17.2258 -22.7593 49.3695
CA -12.3694 -43.1157 53.6136
CA -14.2856 -40.1508 61.693
CA -16.0884 -10.648 53.4721
CA -9.09391 -32.6746 55.2355
CA -21.7744 -8.4113 44.0919
CA -4.86079 -28.2259 58.2231
CA -10.6802 -30.4719 40.1818
CA -19.816 -14.2103 20.1666
CA -17.004 -11.4868 79.1565
CA -10.8613 -20.1721 54.7164
CA 15.4617 0.869066 66.6856
CA -23.7804 -6.84344 60.2613
CA -14.4085 8.9706 50.6555
CA -20.9407 -4.09251 52.4096
CA -15.912 -20.7262 49.5457
CA -22.5176 12.6676 64.727
CA -15.8311 -27.3867 18.8876
CA -4.51741 -38.3594 61.3487
CA -11.3613 -4.93685 59.6627
CA -8.04566 9.177 56.792
CA -31.8131 -23.8707 55.32
CA -28.7962 -0.0405962 52.3116
CA -1.13075 -15.3687 25.265
CA -0.299675 -12.2296 28.6071
CA -22.9126 9.89767 55.7019
CA -28.6783 -2.06529 50.0546
CA -11.6001 -11.3344 75.4325
CA 2.30113 -20.8236 46.4567
CA -5.49523 8.62721 58.4301
CA -9.58967 -20.6204 17.1484
CA -10.2635 -19.0106 24.8741
CA -12.1149 4.2384 78.5039
CA 3.51018 4.71475 51.0063
CA -6.03679 -22.7843 71.5236
CA 7.99735 -13.2381 45.4412
CA -31.9312 -21.0396 53.8673
CA -12.3793 -0.0918487 18.1285
CA -18.7505 -35.2737 32.015
CA -27.6815 -25.3819 48.6604
CA 7.06485 -3.22169 72.5502
CA -7.33907 -16.3111 49.7999
CA -31.9139 -18.5329 57.0492
CA 0.750253 6.63978 61.7705
CA -9.7139 8.68505 56.2033
CA 5.96858 -26.3708 60.3801
CA -6.44169 -19.3157 19.5003
CA -21.915 5.45332 69.9821
CA 3.71552 -22.5494 29.9848
CA -32.02 -21.5307 55.9781
CA 0.597775 -30.4481 62.9806
CA -29.3559 6.10299 66.5768
CA -4.09153 -24.9743 60.4445
CA -3.9006 3.65805 49.6288
CA -8.86994 -18.1317 20.48
CA -7.77215 -39.1811 62.7086
CA -3.87165 -10.6683 27.4454
CA -2.33386 -22.1276 54.772
CA -15.0378 -2.76874 12.1666
CA 2.23673 10.7042 62.2513
CA -6.17105 -36.2567 55.6515
CA -1.34415 3.11958 47.8638
CA -20.8424 15.7239 70.6155
CA -20.4632 -35.6892 31.2428
CA -11.1803 6.97323 54.6557
CA -25.945 -13.8992 49.5175
CA -21.7081 -32.6663 20.4055
CA -23.3405 -14.762 54.0331
CA -4.12626 -33.402 52.9982
CA -16.7101 -20.5833 22.7837
CA -6.94944 -38.087 55.6538
CA -0.729635 13.779 62.0973
CA -38.2184 -9.88755 56.7946
CA -21.5484 13.9437 71.6537
CA -1.27013 -25.997 39.2958
CA 13.9006 -21.9178 42.9386
CA -12.5273 7.44349 55.7661
CA -13.1368 -6.41414 75.3584
CA 3.21867 0.631601 50.3133
CA -6.81921 -19.5892 55.0798
CA -22.3156 -17.8361 21.8559
CA 2.09154 -26.4152 37.2592
CA -18.3776 -1.33048 42.8062
CA -20.3237 -36.3156 50.1796
CA -20.0618 -27.3801 27.8553
CA -36.1842 -0.770689 63.1741
CA -10.5278 -36.7855 45.4651
CA -22.3956 1.57361 54.5712
CA -30.4544 0.365102 62.8065
CA -20.9969 -32.0458 16.9124
CA -6.77946 8.71439 75.0263
CA -1.47221 -17.0173 39.4179
CA -16.9833 -5.79428 64.5291
CA -26.716 -17.8849 52.8712
CA -20.1634 -33.4689 18.4022
CA -17.5427 -32.6017 48.7579
CA 9.86399 7.24148 58.14
CA -27.4105 0.567265 65.2464
CA -25.0478 -5.91638 55.975
CA -2.48574 -19.2962 52.7817
CA -17.0013 -31.137 18.1571
CA -5.96754 8.99783 37.085
CA -24.4138 -1.16491 48.8894
CA -14.1705 -42.446 58.4002
CA -25.0149 -14.2484 55.0857
CA -10.51 -19.3615 21.3119
CA -35.0068 -28.5624 52.0744
CA 5.54425 5.73444 49.6422
CA -16.3201 -30.5458 48.2255
CA -21.2427 -23.0888 28.925
CA -15.5318 -41.5127 44.2626
CA -16.8849 -24.2517 38.4173
CA -18.2673 -9.90981 15.8033
CA -20.8148 -7.92429 60.7678
CA 14.3037 8.81095 56.4968
CA -0.14433 -8.48421 39.3299
CA -3.04579 7.01801 50.0348
CA -2.09027 -8.53155 32.6587
CA -6.58975 -29.4751 68.8207
CA -6.8472 16.1116 74.2635
CA -10.7361 -20.9812 66.8416
CA 6.42858 8.66305 61.8381
CA -14.8397 -17.3112 19.2058
CA -10.103 -11.1828 21.3728
CA 3.04331 -28.0613 54.8331
CA -0.245441 7.49127 67.1947
CA -32.514 -27.0266 54.4412
CA -9.76043 7.76671 76.5605
CA -14.1543 10.6071 41.6979
CA 11.2562 -28.5723 40.2296
CA -13.1625 -39.2718 55.7522
CA -12.405 -5.71463 41.0056
CA -12.1601 10.1796 52.4045
CA -3.89695 0.921213 35.2818
CA -1.65336 -38.7055 60.179
CA -14.3226 -34.2092 39.729
CA -12.2506 0.370705 52.1629
CA -14.6179 -6.08052 55.7483
CA -7.84082 -3.98684 49.5735
CA -28.3616 2.04572 55.4929
CA -18.4725 -31.6004 47.0528
CA -7.14138 -29.9535 50.4224
CA -4.15211 9.31315 76.3531
CA -2.76933 6.81351 47.4403
CA -19.0272 -22.9806 23.0464
CA -16.2971 -5.16894 14.0445
CA -21.6301 -15.1649 55.2625
CA -13.8795 -23.0935 65.7482
CA 10.4978 -21.9624 47.8135
CA -17.6458 -8.73637 46.0765
CA -17.3654 -22.8088 63.0141
CA -18.6772 -20.9321 30.4636
CA -18.0314 -20.5856 14.4051
CA 1.54321 -24.4654 45.1497
CA -8.35575 -21.4356 19.561
CA -15.8442 -36.9643 38.7068
CA -9.29632 -33.8223 70.6856
CA -35.3643 -12.353 58.8863
CA -25.3266 4.15194 78.2925
CA -1.4408 9.6811 73.0445
CA -8.57982 -30.2588 53.5694
CA -15.5517 -33.4861 35.7329
CA 12.8506 -27.2509 45.1097
CA -13.7399 -27.2103 64.3672
CA -26.4984 -26.5853 55.6783
CA -2.40173 3.75303 58.4139
CA -24.3214 -24.2178 54.9399
CA 2.04851 -15.0606 56.6042
CA -26.4462 -9.7032 54.1786
CA -13.7845 -24.1598 44.9828
CA -31.0855 -9.16177 39.4749
CA -4.6715 -30.0795 51.1938
CA -20.4829 17.1022 49.1577
CA -12.5058 -33.9317 41.2203
CA -12.359 -9.01332 70.4935
CA -2.95449 -36.5679 52.8191
CA -12.8114 -3.97601 78.0651
CA -5.65353 6.46812 52.948
CA -20.9462 -20.3523 42.813
CA -4.47166 7.57321 59.8369
CA -9.95692 12.8839 71.9414
CA -18.3436 -30.6102 49.7251
CA -15.1399 -25.9984 48.9615
CA 0.144062 -21.9917 49.7525
CA -26.0692 -3.27165 62.8665
CA -4.81977 -8.62557 22.8624
CA -24.1821 -9.64488 50.5618
CA -30.3283 -5.79517 65.4891
CA -21.6402 -10.4354 63.5905
CA -24.7776 -9.97809 43.6357
CA -17.5327 -0.162953 85.7553
CA -26.1391 -6.28868 45.164
CA -16.1298 -5.53781 45.5147
CA -21.9536 15.5185 68.9811
CA -18.0244 19.9465 72.4257
CA -9.39843 -25.3583 57.0507
CA 13.8544 5.53029 65.4689
CA -11.4293 -34.0057 42.7424
CA -6.62771 10.3526 41.2302
CA -24.0069 4.77471 66.1245
CA -9.70183 -26.9127 52.7734
CA -6.48647 -19.1286 65.5586
CA -17.2268 1.14566 81.5363
CA -11.5272 9.41204 54.0194
CA -7.31887 8.86005 50.2661
CA -25.3546 -6.05614 65.4736
CA 0.815903 -19.7523 52.4801
CA -11.0173 -14.6452 22.6966
CA -29.6814 -0.564242 75.0858
CA -8.67967 7.15811 73.358
CA -16.5775 -40.0727 64.9545
CA -33.3245 -4.27667 61.5462
CA -24.2079 -11.7926 53.6396
CA -33.8682 -9.98885 56.0513
CA -14.3802 -4.53984 52.3409
CA -12.7437 -6.39858 44.6391
CA 2.28787 -18.6025 56.2867
CA -8.25525 -7.50829 63.8282
CA -1.534 -27.7719 39.821
CA -8.58081 -5.40202 41.4939
CA 11.1699 -22.9281 44.141
CA -16.4842 -29.7713 62.3115
CA -15.6088 22.9346 73.4957
CA -16.3319 -12.6082 20.5007
CA -15.011 -30.2911 16.7946
CA -3.97511 -43.6524 58.976
CA 18.8286 -20.7148 48.7926
CA -27.2266 -27.9866 53.8136
CA -18.1703 -9.22313 56.4232
CA -9.30619 9.79918 53.0021
CA 7.04228 2.88226 63.1249
CA 14.0202 -24.0835 47.5357
CA 4.69444 -30.2956 55.0071
CA -35.5841 -23.1203 57.8943
CA -7.04987 -28.9445 58.9444
CA -10.6614 -36.21 68.1769
CA -14.2098 8.46777 47.5275
CA -9.20473 -15.0668 50.0298
CA -8.46772 -43.6871 39.2531
CA -6.15741 -22.0237 49.9054
CA -0.295824 -20.6437 42.9311
CA 5.23289 2.81109 61.8866
CA -16.781 -30.6476 31.1838
CA -4.90912 -27.4444 47.1055
CA -10.7324 8.47506 58.4222
CA -19.9319 -23.0553 41.4556
CA 3.97993 -38.1327 63.1917
CA -5.0248 4.959 54.5356
CA 4.87423 -19.4856 58.0465
CA -20.8118 4.96117 80.0151
CA 2.42582 -21.2792 27.8298
CA -23.6766 -6.09704 48.9255
CA -20.2077 18.3085 72.5857
CA -19.1295 -31.9158 18.6719
CA -5.09064 -35.083 71.6573
CA -11.4807 -40.9359 51.8479
CA -9.50503 -39.9269 45.604
CA -12.2724 -22.2607 47.7557
CA -28.5983 -7.53603 40.3258
CA -23.2877 11.5433 62.3521
CA -24.0609 2.58142 58.2528
CA -20.4284 -29.2905 46.9513
CA -13.8006 -0.435437 81.1414
CA 10.091 4.86773 63.8014
CA 9.56725 -18.2155 55.5334
CA -28.151 -8.30189 43.9091
CA -9.4162 -11.9987 19.1302
CA -17.3364 -7.58405 69.617
CA -0.613031 -37.4655 61.4725
CA -20.0069 -15.0552 18.0509
CA -5.77916 -25.7665 60.6348
CA -27.627 -28.0227 57.6258
CA -13.5258 -25.6447 55.2083
CA -9.99134 -20.223 48.2152
CA -9.03385 -25.0555 45.6867
CA -3.18865 -34.6721 75.2084
CA -4.12886 -30.1854 59.3463
CA -2.75212 -28.5314 60.5449
CA -6.30226 2.59666 34.5864
CA -10.0082 -15.7262 76.9845
CA 7.75138 -27.7306 61.4406
CA -16.6682 -35.2517 52.6949
CA -10.8117 -44.2553 43.1239
CA -11.0052 -35.3218 48.8649
CA -5.85461 -37.1929 52.1657
CA 1.10276 3.12475 61.1978
CA 3.49671 -27.3556 50.6532
CA -16.5675 7.60679 45.674
CA -5.08999 -29.0434 49.7203
CA -4.08351 -5.39943 27.1305
CA 1.91133 -16.4022 38.3203
CA -12.8784 -12.4728 23.2925
CA -12.1415 -28.1253 54.7094
CA 5.89043 8.70797 52.7997
CA -16.2871 -31.9118 20.158
CA -34.4075 -24.8513 57.7439
CA 5.82598 -23.5714 46.0876
CA -0.41098 -22.7553 31.1441
CA -24.9642 -0.0636646 77.7468
CA -20.6357 -23.3599 52.0166
CA -12.553 -19.8643 16.5546
CA -7.8922 -12.9754 23.8383
CA -14.9849 -20.5972 20.9021
CA -11.7241 -43.3306 41.1182
CA -1.23207 -19.5302 49.8999
CA 1.41331 5.60899 63.2077
CA -24.7907 9.59906 67.1127
CA -5.29935 -10.9831 23.3935
CA -6.79315 -15.0036 52.4927
CA -28.6983 -4.15445 70.2293
CA -17.9729 -44.1938 45.4515
CA -4.13037 -28.7652 38.4602
CA -2.29997 -24.9624 45.3409
CA -0.881134 10.595 70.2376
CA -15.4443 -8.70258 69.9752
CA -2.74543 -7.21199 24.1273
CA -17.5621 -11.1063 18.9356
CA -6.07183 8.65865 72.636
CA -31.8307 -6.14747 56.5033
CA -8.09709 -5.31511 38.0798
CA 1.71642 0.289325 60.9358
CA -10.7637 -3.98475 49.2556
CA -4.04851 -23.1828 61.8184
CA -15.9228 -9.20959 76.3279
CA 10.8588 1.02912 68.3032
CA -29.2256 2.94972 64.724
CA -10.1473 -28.9231 57.1747
CA -14.2338 -11.4618 72.4425
CA 3.41846 5.7221 63.0891
CA -10.4256 -24.488 49.7906
CA -8.82289 -5.13638 43.2594
CA -7.26757 -19.1013 23.9286
CA -22.4804 -24.149 55.9731
CA -18.1801 -36.0177 19.1549
CA -1.03449 -27.2584 59.418
CA -7.65383 -18.9213 56.7778
CA 0.986312 7.54222 49.3159
CA -16.6345 -25.9618 37.7638
CA -9.60469 -20.8694 75.4179
CA -7.31429 -26.671 70.5275
CA -11.5452 -31.3931 57.2317
CA -16.2844 -18.1132 11.9547
CA 1.27786 1.22988 44.2471
CA -6.15422 -32.4038 53.041
CA -24.0753 -26.6984 53.9036
CA -9.65435 -20.0612 23.2838
CA 21.7005 -24.2009 51.8872
CA -2.47861 7.58587 58.2177
CA -6.3189 -11.0561 25.3424
CA -19.1869 -24.5859 50.7934
CA -12.2899 -11.8302 59.8587
