489

CA -14.3414 -4.06224 62.1519
CA -8.01647 6.67256 51.8624
CA -19.9992 2.30543 70.1054
CA -15.9137 -3.81537 49.6167
CA -16.071 -21.2691 47.062
CA -1.50389 -17.4092 26.6787
CA 8.8692 -30.0504 59.6702
CA -18.9182 -12.7601 55.5117
CA 0.606891 -39.9841 65.4036
CA -11.3739 -2.43824 15.6119
CA -1.94314 1.66338 63.066
CA -20.626 -18.2024 17.4519
CA -7.08771 -12.0267 50.0618
CA 17.1513 -23.5046 36.6853
CA -5.26669 -33.7699 74.8095
CA 6.2745 -16.307 47.8698
CA 3.97444 -13.6993 36.5167
CA -15.8878 -10.4773 16.3502
CA -30.0238 -5.86338 50.5143
CA -10.7112 -9.81412 72.8472
CA 1.28886 -23.3344 46.0928
CA -11.2392 -21.5652 52.7254
CA -17.1986 17.8961 73.9275
CA -12.0585 -29.5299 41.369
CA -16.0448 -38.782 53.2457
CA -5.17151 -30.0923 36.5469
CA -15.091 -5.48541 60.7352
CA -0.330816 9.63255 79.4525
CA -2.28907 -26.8961 61.3466
CA -35.7797 -25.2506 56.0528
CA -18.0782 -12.2699 60.8909
CA -6.89576 -28.7751 39.3802
CA -11.0218 -3.0777 78.1875
CA -1.79947 -42.7794 61.7567
CA 12.6777 2.30494 67.258
CA -22.7947 -0.386386 53.4767
CA 4.88518 -15.1935 38.9623
CA -13.9324 -10.779 58.2899
CA -16.0922 16.914 69.7896
CA -16.973 -8.6763 48.6297
CA -17.618 13.8702 72.4966
CA 4.22067 -16.0352 40.9158
CA -14.0042 -1.70683 14.8519
CA -31.0567 -6.07818 60.3709
CA -13.3806 -18.5066 19.7375
CA -22.5987 -11.5241 62.2968
CA -15.5432 -11.9816 47.4023
CA -4.67181 -29.2534 40.9435
CA -3.6896 -4.16506 25.0789
CA -14.4923 -34.4846 15.9504
CA -33.454 -16.7667 56.0207
CA -8.10314 -32.3951 64.5841
CA -3.91893 -21.6556 66.7938
CA -17.9 22.5092 71.6882
CA 11.9855 -26.0088 50.5491
CA -18.1513 2.52471 82.909
CA -6.19436 9.36549 39.3741
CA -14.5853 -5.15095 76.269
CA -18.9877 8.09771 41.9823
CA -20.3352 -13.2236 72.43
CA -4.66588 -11.4406 32.7352
CA -5.80497 -15.8395 47.8057
CA 0.645327 11.5975 79.9487
CA -3.20773 -23.0959 26.056
CA -3.56943 -1.47199 34.4843
CA 4.87863 -16.4675 49.453
CA -17.2962 -42.214 44.154
CA -23.0851 -17.6978 52.2889
CA -16.075 -21.6545 78.132
CA 9.30625 -33.0903 36.2671
CA -21.0759 16.8009 73.7103
CA -16.4226 -38.733 46.5949
CA -19.6366 -10.8673 80.3706
CA -6.53873 -16.2199 25.8861
CA -7.76596 -12.6875 76.8598
CA -22.5163 -24.8355 29.6226
CA -13.5347 -40.3443 43.9492
CA -17.358 -9.08546 70.9906
CA 2.33028 -41.1877 65.3008
CA -23.0511 -4.69061 40.2068
CA 1.12288 -40.0792 57.0432
CA -34.2025 -21.527 57.5379
CA 9.98701 -4.13169 70.3061
CA 20.0044 -22.4856 40.567
CA -15.6371 -37.2069 42.8424
CA -28.3864 0.493711 54.3378
CA -2.99665 -10.3924 32.9922
CA 2.71607 -32.3216 54.587
CA -11.0595 -10.4489 43.6433
CA 12.4008 3.74963 55.8058
CA -7.26489 6.71031 38.9366
CA -15.1467 -2.17012 45.3589
CA 21.7335 -17.2571 48.6879
CA -16.9586 -6.92637 11.7798
CA -2.99598 -27.5113 64.7976
CA 3.90593 -23.3549 56.448
CA -10.8939 -2.15448 63.704
CA -11.3293 -23.9901 57.7689
CA -18.1644 -37.1014 16.0272
CA -5.38938 -3.4313 33.316
CA 7.35953 -23.9792 47.1213
CA -13.8492 -19.1003 76.0374
CA -23.8739 -7.01137 62.2813
CA -31.9423 -3.97199 51.5531
CA -10.0284 -9.70504 62.1021
CA -31.6956 -10.0471 55.55
CA -18.7318 17.2505 69.0182
CA -11.2484 -33.5392 55.5851
CA -13.789 -22.188 41.8658
CA -5.8962 1.03597 33.6214
CA -7.32373 -28.4227 55.2013
CA -0.0424962 -19.7966 59.1077
CA 1.67937 -43.5004 60.0196
CA -17.0974 -28.0864 48.992
CA -20.3627 -28.7795 52.041
CA -10.6422 10.2649 73.1863
CA -14.915 -1.23541 79.0896
CA -21.2301 -0.738846 57.3991
CA -5.55556 -9.05689 35.6847
CA -18.1481 -30.7147 20.0999
CA -8.42481 -0.0986079 38.0698
CA -3.33433 5.53417 62.4262
CA 4.01421 -35.0927 64.395
CA -31.92 -25.2418 58.7525
CA -18.0343 -29.777 15.8199
CA -23.273 -15.8027 15.9296
CA -20.0375 -1.33215 51.0009
CA -24.2294 -26.3453 47.8973
CA 1.54802 -17.734 41.7199
CA -5.05186 -0.150721 31.6207
CA -19.9344 -7.2855 79.4236
CA 7.7468 -15.0126 45.9508
CA -22.6746 -25.2074 51.5023
CA -0.752487 -21.2663 28.1083
CA -19.0792 13.9181 69.5548
CA -18.9165 -7.0345 48.1051
CA -27.5582 -4.54336 64.5492
CA -5.0612 7.92045 45.111
CA -17.2258 -22.7593 49.3695
CA -12.3694 -43.1157 53.6136
CA -18.2887 -29.0699 55.7965
CA -9.29832 -23.3267 69.7588
CA -9.09391 -32.6746 55.2355
CA -21.7744 -8.4113 44.0919
CA -3.27113 -32.4757 53.1083
CA -26.7469 5.9512 62.5957
CA -33.4933 -20.2359 56.1059
CA -17.004 -11.4868 79.1565
CA -13.5079 -25.3842 38.3904
CA 20.6405 -19.987 45.1525
CA -26.9019 -25.2797 51.4167
CA -14.4085 8.9706 50.6555
CA -23.5534 -30.1922 39.5069
CA -21.1819 -8.50379 62.5782
CA -22.5176 12.6676 64.727
CA -15.8311 -27.3867 18.8876
CA -5.38124 2.28444 48.7024
CA -11.3613 -4.93685 59.6627
CA -8.04566 9.177 56.792
CA -31.8131 -23.8707 55.32
CA -22.4449 -10.5744 42.6701
CA 8.64369 -21.0952 44.8915
CA 7.09801 -32.992 53.1853
CA 9.35958 -29.2541 61.8695
CA -28.6783 -2.06529 50.0546
CA -10.9425 -1.97017 42.7189
CA 1.26085 -21.527 53.6143
CA 1.28852 -20.2754 41.1524
CA -9.58967 -20.6204 17.1484
CA -10.2635 -19.0106 24.8741
CA -13.183 -11.8155 42.3881
CA 3.51018 4.71475 51.0063
CA -6.03679 -22.7843 71.5236
CA -10.99 -0.0915496 47.5445
CA -31.9312 -21.0396 53.8673
CA -27.4334 -1.80397 54.9753
CA -18.7505 -35.2737 32.015
CA -27.6815 -25.3819 48.6604
CA 7.06485 -3.22169 72.5502
CA -33.6561 -17.6797 51.5263
CA -12.4438 -6.89333 80.0014
CA -6.76795 7.64446 40.7576
CA 10.2668 -25.5126 46.242
CA 5.96858 -26.3708 60.3801
CA 0.101513 -19.1587 50.6806
CA -21.915 5.45332 69.9821
CA -22.2849 -4.3191 62.0928
CA -13.5319 0.486786 76.2198
CA -10.0247 -1.31306 13.097
CA -18.4816 -7.1606 18.2254
CA -4.09153 -24.9743 60.4445
CA -0.833952 -40.3015 57.0904
CA -4.80719 11.518 73.294
CA -7.77215 -39.1811 62.7086
CA -3.87165 -10.6683 27.4454
CA -2.33386 -22.1276 54.772
CA -1.64999 -11.8772 43.7121
CA 2.23673 10.7042 62.2513
CA -3.66115 -6.91183 25.7589
CA -21.1808 -26.1571 52.051
CA -20.8424 15.7239 70.6155
CA 2.42731 -40.5517 55.5361
CA 5.02198 -46.6218 58.6234
CA -16.9893 -25.8196 44.8215
CA -21.7081 -32.6663 20.4055
CA -23.3405 -14.762 54.0331
CA -21.688 -36.5063 17.2242
CA -16.7101 -20.5833 22.7837
CA 0.704902 -34.7446 60.5826
CA 0.223153 -41.2569 60.2334
CA -38.2184 -9.88755 56.7946
CA -23.0657 -9.06007 45.2551
CA -1.27013 -25.997 39.2958
CA 13.9006 -21.9178 42.9386
CA -12.5273 7.44349 55.7661
CA -13.1368 -6.41414 75.3584
CA -6.51229 -1.54406 11.2297
CA -3.52868 -27.4666 48.912
CA -2.69395 -24.4536 43.3146
CA 2.09154 -26.4152 37.2592
CA -25.8479 -34.8581 19.3581
CA -3.55633 -20.2739 54.207
CA -20.0618 -27.3801 27.8553
CA -25.6568 11.7258 61.4509
CA -28.9493 -4.86547 59.6303
CA 1.88484 -21.564 46.3151
CA -30.4544 0.365102 62.8065
CA -20.9969 -32.0458 16.9124
CA -6.77946 8.71439 75.0263
CA -13.3742 0.527733 49.7848
CA -8.92242 -8.56903 68.1625
CA -26.716 -17.8849 52.8712
CA 1.96164 -21.2501 51.429
CA -29.8265 0.191156 66.4853
CA 9.86399 7.24148 58.14
CA -12.0372 -16.7829 53.0272
CA -6.34045 -36.5414 50.3458
CA -2.48574 -19.2962 52.7817
CA -20.9421 -20.1483 46.6677
CA -2.90415 -24.1566 52.3725
CA -15.4938 -32.2134 42.6211
CA -14.1705 -42.446 58.4002
CA -26.9038 -14.877 53.819
CA -21.4604 7.98044 77.1237
CA -17.2399 -18.0014 17.4112
CA -20.9501 -23.6662 44.2951
CA -3.2069 0.168847 33.6638
CA -23.512 -32.4004 17.6052
CA -15.5318 -41.5127 44.2626
CA -16.8849 -24.2517 38.4173
CA -18.2673 -9.90981 15.8033
CA -20.8148 -7.92429 60.7678
CA -1.71647 4.72233 60.252
CA -0.14433 -8.48421 39.3299
CA -20.4275 -35.0003 16.7787
CA 10.5504 -27.8146 37.8426
CA -8.16317 -33.3154 47.8992
CA -2.85683 -28.2822 62.8625
CA -10.7361 -20.9812 66.8416
CA 6.42858 8.66305 61.8381
CA -4.85254 -38.7181 56.0098
CA 17.1229 -21.8222 44.2957
CA 3.04331 -28.0613 54.8331
CA -0.245441 7.49127 67.1947
CA -24.7201 -0.302859 66.6278
CA -9.76043 7.76671 76.5605
CA -14.1543 10.6071 41.6979
CA 11.2562 -28.5723 40.2296
CA -19.1456 -11.202 17.3888
CA -18.2035 -42.0337 47.9308
CA -15.6581 -31.8359 33.8992
CA -17.2093 2.56814 76.6181
CA -22.5234 -24.5299 53.6443
CA -19.6893 -15.7798 22.0272
CA -14.9049 -8.2882 47.8449
CA -14.6179 -6.08052 55.7483
CA -8.14302 2.91221 36.4087
CA -11.7546 9.30166 48.6668
CA -27.7784 3.47997 58.1822
CA -9.0166 -3.77252 49.894
CA -4.15211 9.31315 76.3531
CA -2.76933 6.81351 47.4403
CA 0.0500322 -14.1982 41.9613
CA -16.2971 -5.16894 14.0445
CA -28.3599 -15.5769 50.7487
CA -13.8795 -23.0935 65.7482
CA 10.4978 -21.9624 47.8135
CA -17.6458 -8.73637 46.0765
CA -17.3654 -22.8088 63.0141
CA -2.73314 9.66827 58.2917
CA -18.0314 -20.5856 14.4051
CA -17.4234 -21.1081 44.5654
CA 5.73675 -27.1228 37.6103
CA -16.6021 -41.0088 41.5261
CA -9.29632 -33.8223 70.6856
CA -35.3643 -12.353 58.8863
CA -25.3266 4.15194 78.2925
CA 2.94488 -16.5497 43.3586
CA -17.0881 -24.0433 53.4703
CA -15.5517 -33.4861 35.7329
CA -15.5212 -22.995 45.1549
CA -13.7399 -27.2103 64.3672
CA 0.0338283 -12.5202 43.1468
CA -9.88096 -25.3864 46.0082
CA -24.0461 -9.25843 41.3168
CA 6.727 -21.8592 45.4054
CA 2.80018 9.39568 72.8617
CA -16.5785 -25.9695 64.9099
CA -17.9262 -36.533 53.0071
CA -0.105642 -36.6508 58.2797
CA -4.69752 11.6032 35.5699
CA -12.5058 -33.9317 41.2203
CA -12.359 -9.01332 70.4935
CA -12.646 -3.93516 56.6673
CA -12.8114 -3.97601 78.0651
CA -0.4264 -21.7095 52.1581
CA -20.9462 -20.3523 42.813
CA -7.62167 3.93883 47.5393
CA 11.7849 6.39488 57.2883
CA -5.69445 -12.3999 37.7081
CA -15.1399 -25.9984 48.9615
CA -13.8623 -33.9925 44.1176
CA -10.0653 -7.43273 66.8387
CA -4.81977 -8.62557 22.8624
CA -6.39553 -5.96556 25.7796
CA -30.3283 -5.79517 65.4891
CA -17.1361 10.5053 40.5742
CA -24.7776 -9.97809 43.6357
CA -18.5558 -27.4609 46.5547
CA -26.1391 -6.28868 45.164
CA -16.1298 -5.53781 45.5147
CA -12.1704 -5.14295 63.815
CA -18.0244 19.9465 72.4257
CA -30.9494 0.0591936 50.4458
CA 13.8544 5.53029 65.4689
CA -14.2346 -10.4021 43.3574
CA -6.62771 10.3526 41.2302
CA -24.0069 4.77471 66.1245
CA -9.70183 -26.9127 52.7734
CA -11.8917 -9.4477 37.8636
CA -12.2598 -3.04473 80.2412
CA -17.6962 9.50297 51.0702
CA -7.31887 8.86005 50.2661
CA -4.6183 3.1778 62.7819
CA -15.7882 -22.1263 75.9559
CA -3.14218 -38.5305 59.8085
CA -33.4206 -5.59635 67.578
CA -27.6689 -12.5323 46.1852
CA -23.7587 -3.82783 38.0351
CA -14.437 -13.9604 49.8202
CA 2.98586 -37.5505 56.4019
CA -33.8682 -9.98885 56.0513
CA -20.6927 -9.89917 74.8205
CA -20.9605 -10.9568 45.9245
CA -9.52354 -25.7585 70.8011
CA -22.7098 -22.8454 40.5693
CA -9.29943 -35.8874 65.5652
CA -8.58081 -5.40202 41.4939
CA 11.1699 -22.9281 44.141
CA -16.4842 -29.7713 62.3115
CA -15.6088 22.9346 73.4957
CA -13.8239 -17.2579 21.4203
CA -15.011 -30.2911 16.7946
CA -3.97511 -43.6524 58.976
CA 18.8286 -20.7148 48.7926
CA -27.2266 -27.9866 53.8136
CA -10.5766 -20.9871 79.8522
CA -9.30619 9.79918 53.0021
CA -16.0129 11.3522 48.3416
CA -18.975 -6.07314 68.5347
CA -9.99004 -29.4672 52.0796
CA -10.7992 -9.92754 39.8472
CA -9.58381 -5.2582 67.8283
CA -10.6614 -36.21 68.1769
CA -25.3545 -6.78081 61.0874
CA 10.8896 7.45579 64.1931
CA -15.3476 -34.2197 56.8868
CA -6.15741 -22.0237 49.9054
CA -0.295824 -20.6437 42.9311
CA -12.2073 -2.4837 9.69874
CA -16.781 -30.6476 31.1838
CA -17.3519 -24.9484 20.265
CA 11.6424 -6.55872 68.6676
CA -9.03906 9.5844 72.334
CA -1.80705 -15.1677 42.8873
CA -34.5524 -25.1911 59.3304
CA 4.87423 -19.4856 58.0465
CA -20.8118 4.96117 80.0151
CA 2.42582 -21.2792 27.8298
CA -23.6766 -6.09704 48.9255
CA -25.1312 -14.8575 52.0339
CA 12.3239 3.39674 64.9184
CA -20.0121 -8.73064 45.8565
CA -11.4807 -40.9359 51.8479
CA -8.86954 -32.3197 60.7633
CA -12.2724 -22.2607 47.7557
CA -28.5983 -7.53603 40.3258
CA -23.2877 11.5433 62.3521
CA -16.2734 -23.8926 50.8929
CA -9.45986 -33.6099 64.7253
CA -13.8006 -0.435437 81.1414
CA -0.468739 4.22403 61.8088
CA -35.1331 -11.2331 56.9127
CA -5.95633 -17.795 57.8979
CA -9.4162 -11.9987 19.1302
CA -22.8522 -6.45407 40.8469
CA -6.70791 -20.8046 74.3876
CA -20.0069 -15.0552 18.0509
CA -5.77916 -25.7665 60.6348
CA -27.627 -28.0227 57.6258
CA -9.07321 -14.1414 52.8852
CA -11.7084 -7.28355 60.0485
CA -28.2719 -11.5198 52.9767
CA -19.4557 -27.6465 48.7455
CA -13.7473 -33.2208 17.6312
CA -16.1208 -17.8791 20.0023
CA 12.9559 7.08465 56.0775
CA -10.0082 -15.7262 76.9845
CA 12.6613 -17.3055 41.3149
CA 2.75974 -37.8611 65.549
CA -9.4517 3.39003 46.1337
CA -11.0052 -35.3218 48.8649
CA -5.85461 -37.1929 52.1657
CA 1.10276 3.12475 61.1978
CA -21.9114 -15.9391 19.0334
CA -15.6037 -8.28151 17.5862
CA -5.08999 -29.0434 49.7203
CA 3.61062 -22.0969 50.3732
CA -19.4814 10.3914 44.8797
CA -12.8784 -12.4728 23.2925
CA -19.1333 10.7613 47.2342
CA -12.2075 -5.01195 50.2771
CA -26.6932 10.132 65.3829
CA -2.01497 -28.1826 57.6927
CA -23.9474 4.67258 70.9559
CA -0.41098 -22.7553 31.1441
CA -24.9642 -0.0636646 77.7468
CA -25.6038 -8.39014 50.9925
CA 0.0362482 -45.7013 65.0398
CA -11.4757 -18.937 77.8744
CA -8.72076 -5.09311 59.4842
CA -11.7241 -43.3306 41.1182
CA -5.15433 -24.0453 37.1793
CA -18.5334 15.2647 64.5709
CA -24.7907 9.59906 67.1127
CA -18.4246 -19.1099 43.688
CA -6.79315 -15.0036 52.4927
CA -28.6983 -4.15445 70.2293
CA -3.25166 -36.766 57.8382
CA -4.13037 -28.7652 38.4602
CA -8.5234 6.92887 47.7331
CA -0.881134 10.595 70.2376
CA -15.4443 -8.70258 69.9752
CA -2.74543 -7.21199 24.1273
CA -17.8614 -18.1739 13.9019
CA -12.4393 -38.0629 64.3904
CA -32.3926 -11.7306 54.1877
CA -27.5865 7.50232 67.7318
CA -2.71529 -9.93532 25.4358
CA -11.7765 1.53066 48.4984
CA 2.84712 -15.3623 39.8911
CA -13.8184 -30.1647 40.2751
CA 10.8588 1.02912 68.3032
CA -29.2256 2.94972 64.724
CA -26.8895 -19.6326 50.2397
CA -5.69911 -25.5972 53.6478
CA 3.41846 5.7221 63.0891
CA 0.314472 -27.2346 56.6714
CA -15.9401 -30.9933 38.7955
CA 5.89535 -19.3643 42.6747
CA -19.3016 -7.03206 45.8096
CA -18.1801 -36.0177 19.1549
CA -14.2298 -31.6476 14.8418
CA -11.2892 4.31325 50.8458
CA 0.986312 7.54222 49.3159
CA -16.6345 -25.9618 37.7638
CA -9.60469 -20.8694 75.4179
CA -6.69301 -32.1871 60.6871
CA 12.0364 -24.1188 54.4641
CA -11.1633 9.4444 42.7278
CA -10.2799 -8.64329 38.6443
CA -20.6554 -31.6578 39.2127
CA -24.0753 -26.6984 53.9036
CA -12.6165 -34.1146 45.7939
CA -35.9205 -27.0261 58.7835
CA -25.6449 0.654551 59.7322
CA -6.3189 -11.0561 25.3424
CA -0.319392 -43.926 62.6982
CA 4.6513 -35.5476 59.1503
