489

CA -31.7872 4.78376 58.9337
CA -10.1067 -24.3187 32.1088
CA -15.4813 -30.6313 79.9939
CA -17.7634 -25.383 53.8358
CA -25.6609 -3.08533 75.5522
CA -2.0873 -22.8009 53.0623
CA -16.3844 -15.0792 47.2853
CA -29.5477 4.13069 57.5051
CA -41.668 5.67376 65.1277
CA -11.3739 -2.43824 15.6119
CA -19.4547 -12.3677 38.5234
CA -42.2502 4.78782 70.0616
CA -6.18313 -17.3377 32.3297
CA -26.2109 -26.4382 69.2755
CA -22.622 -21.3552 71.7616
CA -15.3221 -18.1207 91.8863
CA -40.3961 -10.1431 61.4197
CA -13.45 -12.5661 51.6574
CA -5.89431 -1.38395 54.8609
CA -0.122355 -23.0523 62.5621
CA -21.3927 -42.3782 15.1615
CA -15.4238 -31.0593 19.4339
CA -27.4598 -29.6325 57.7878
CA -12.276 -24.8322 26.9563
CA -4.23944 -23.9086 63.9532
CA -23.0695 5.11218 72.2118
CA -25.1346 -39.4329 64.0349
CA -6.99983 4.49477 42.6925
CA -23.6481 -10.1161 31.7601
CA -10.0285 -15.6131 77.1523
CA -1.25244 -26.6384 53.1254
CA -37.8097 -8.95138 57.4685
CA -3.00675 -1.84698 66.1437
CA -17.1628 -8.21179 82.2907
CA -18.277 -24.8738 74.043
CA -45.615 4.92421 65.3217
CA -7.35012 -25.876 53.0845
CA -20.5528 -7.90695 56.2645
CA -10.0082 -43.0841 42.1849
CA -20.5599 -30.7918 20.5882
CA -25.3056 -28.884 52.7151
CA 6.67339 -10.5553 39.0129
CA -18.8789 -7.75772 69.4019
CA -7.44291 1.45332 48.0782
CA -28.0628 -2.93387 74.1722
CA -6.9807 4.23933 49.2237
CA -21.6233 -3.9548 54.495
CA -21.8503 -38.7855 17.0624
CA -31.7927 -4.51313 48.963
CA -26.9875 -27.3038 67.7322
CA -16.8955 -10.9373 82.1779
CA -23.9049 4.12443 50.0815
CA -13.0778 -5.80609 55.4615
CA -16.3485 -31.927 50.7882
CA -17.2848 -34.6256 62.1422
CA -7.7723 -23.4527 20.1592
CA -42.8879 5.69936 68.4534
CA -4.12529 -25.3567 34.3084
CA -15.2136 -11.751 18.5852
CA -15.327 -37.1472 44.5629
CA -12.7484 -11.2227 59.526
CA -18.0243 -17.2284 36.424
CA -19.5306 -21.7747 51.4858
CA -5.88516 -5.12476 66.7606
CA -17.6443 0.710332 18.5232
CA -15.7151 -27.5614 50.7543
CA -27.5346 -13.432 47.3045
CA -3.22295 -11.8586 27.9016
CA 4.16905 -19.9882 40.3241
CA -19.0601 -21.0404 75.9028
CA -0.221181 -28.0966 43.0145
CA -33.2474 -3.21551 51.288
CA -32.4703 1.17485 52.2044
CA -21.6333 -28.3264 56.7214
CA -5.4136 5.1496 49.5126
CA -4.90707 -19.604 72.1122
CA -7.64877 -0.423358 57.9469
CA -9.96709 -21.3988 53.8655
CA -23.7599 -23.4163 66.3556
CA 12.3572 -15.8518 39.086
CA -12.734 -7.29661 20.7169
CA -21.9159 -26.1838 69.5657
CA -6.55388 -11.2888 29.1201
CA -17.5476 -36.1428 54.2759
CA -6.7675 -2.80266 57.5421
CA 6.72018 13.3357 63.851
CA -32.5547 3.26784 57.0125
CA -19.4177 15.9636 68.6413
CA -15.3852 -19.2208 73.2408
CA -24.8308 -36.8681 56.9489
CA -5.02425 -16.7807 54.1267
CA -26.603 -9.43122 45.031
CA -23.8031 -23.1704 69.4814
CA -16.9586 -6.92637 11.7798
CA 3.07687 7.93895 62.3788
CA -16.4146 -14.391 50.0446
CA -23.1392 -16.6855 28.0875
CA -16.5257 -11.7337 26.368
CA -14.714 -14.441 71.9431
CA -19.5857 -13.0753 15.1587
CA -28.7807 -1.2379 40.9569
CA -5.51155 -17.8818 46.1639
CA -26.2418 -5.27136 46.7944
CA -8.39274 -15.5147 75.7298
CA -14.8449 -22.4124 37.0972
CA -19.9713 -16.8891 54.2614
CA -32.9965 10.9683 69.5435
CA -37.2976 -6.58454 60.037
CA -27.7556 -6.09239 66.3223
CA -16.6501 -35.5462 47.54
CA -28.2008 -0.582391 64.2062
CA -34.3789 -3.28854 49.7435
CA -24.3535 -34.5373 16.9251
CA 5.33523 -16.8081 37.9625
CA -5.86594 -16.2776 65.0603
CA -28.0162 -5.7278 42.2725
CA -31.213 -17.6788 49.8336
CA -27.5467 -0.779137 53.2494
CA -14.3748 -33.0748 16.6917
CA 1.47827 -18.8487 51.0436
CA -2.01518 -37.8744 64.9051
CA -20.3759 -27.2257 80.8858
CA -15.6112 -13.9373 15.8574
CA -22.9514 -6.28851 55.2486
CA -11.1802 -19.8741 71.2063
CA -15.1963 -29.6976 47.5906
CA -12.4198 -15.7243 24.8447
CA -23.6376 -17.0293 73.1374
CA -21.5501 -21.8834 48.4226
CA -13.2496 -0.138199 42.1923
CA -24.5043 -22.2926 84.675
CA -29.5765 -11.5186 43.0962
CA -16.6038 -23.9839 76.5971
CA -14.1652 -4.20047 20.3696
CA -9.61817 -16.7606 57.3459
CA -29.5635 -12.9519 46.9498
CA -16.7781 -9.88968 73.333
CA -0.884436 -18.4986 46.094
CA -13.0454 -15.6212 44.6342
CA -25.9882 -4.10196 55.7484
CA -21.3169 -11.5923 12.1886
CA -36.3564 -6.71637 69.9052
CA -16.6777 -12.9204 73.0797
CA -31.9037 -10.5442 55.5809
CA -30.9345 3.90142 73.1219
CA -5.6226 -22.9443 26.079
CA 8.46619 -19.9328 42.8425
CA -20.6394 -11.0147 80.0151
CA -7.35737 -21.4941 48.0462
CA -15.4947 -1.0244 80.8014
CA -28.0909 8.05342 73.5946
CA -14.0864 -30.9729 34.1558
CA -12.4778 -20.754 41.1468
CA -18.3313 -11.5753 80.9053
CA -24.3132 -37.6244 63.7842
CA -21.9981 -23.173 73.314
CA -23.6292 -9.58853 61.1312
CA -13.9508 -20.845 39.6875
CA -18.3741 4.23661 44.5703
CA -4.05746 -9.47532 39.1444
CA -18.8967 -30.3211 77.3444
CA -16.0311 -33.8111 20.2459
CA -32.4838 -9.6944 59.5199
CA -22.1306 -30.5009 56.7917
CA -22.021 -25.2361 78.2366
CA -14.6253 -19.4228 21.4201
CA -17.1787 -13.4895 11.6817
CA -14.823 -25.6548 31.2922
CA -9.58967 -20.6204 17.1484
CA -10.4961 11.7896 44.7724
CA -19.9745 -24.4973 86.2516
CA -23.9129 -5.04404 69.9122
CA -28.6785 -14.6674 48.482
CA -19.891 -27.3275 16.4917
CA -22.9216 -24.7483 68.786
CA -13.5412 -28.3857 21.0088
CA -22.7134 -9.89407 70.951
CA -26.7062 -3.72705 58.0887
CA -8.53162 -19.0244 17.0608
CA -12.0659 8.51534 52.2538
CA -37.753 -1.16561 64.7287
CA -32.2627 -4.92284 53.8278
CA -19.7002 -27.7689 55.6148
CA -2.41169 -25.8267 64.6108
CA -15.8285 -36.0231 43.2308
CA -11.0885 2.20954 39.5532
CA -3.43851 9.06947 51.9172
CA -3.09841 11.4147 70.3296
CA -15.0995 -6.97219 73.3472
CA -21.161 -22.6805 84.2983
CA -24.6685 0.473303 64.0098
CA -23.4239 -25.2609 59.9741
CA -27.3472 -16.1253 49.2731
CA -11.9125 -31.555 61.2084
CA -22.8239 -25.8966 55.3219
CA -4.03629 -48.8465 38.6356
CA -27.9986 -14.3185 50.9459
CA -20.9879 -14.313 34.6372
CA -25.7898 1.29143 49.5337
CA -11.4658 -12.2616 60.2538
CA -14.2827 -33.9765 61.6059
CA -6.13372 -18.2744 49.6535
CA -21.1748 6.68206 64.2824
CA -5.50734 -10.078 72.7944
CA -14.9078 0.335909 17.179
CA 5.02469 1.20706 64.0555
CA -43.9669 4.76007 63.5858
CA -24.5106 -21.4041 87.559
CA -15.3744 -11.3046 67.2991
CA -3.86303 -22.7492 70.5706
CA -18.7669 -23.1889 76.1868
CA -34.0847 3.80794 55.4467
CA -2.27866 -9.76939 39.7327
CA -15.3969 -17.7445 37.5181
CA -24.9147 -5.08981 76.6985
CA -6.76931 -35.395 47.3261
CA -6.51229 -1.54406 11.2297
CA -29.1752 5.08846 68.3107
CA -20.5215 -26.4135 43.2534
CA -6.38579 5.02803 60.781
CA -24.2275 -27.9536 44.2912
CA -6.63902 -17.5975 34.4601
CA -24.2016 -20.6707 28.7485
CA -9.67865 -20.9298 18.9597
CA 8.07417 -19.8982 39.6076
CA -2.41421 11.3523 65.1927
CA -5.45941 2.32732 8.47909
CA -20.9969 -32.0458 16.9124
CA -28.7035 -2.6091 52.1404
CA -2.36435 -17.0932 35.6366
CA -9.7961 -11.3564 25.3413
CA -19.9109 -29.4162 17.9794
CA -22.3237 -11.3855 29.5274
CA -0.89094 -1.08112 63.2157
CA -25.9416 -20.2943 50.0883
CA -19.8566 -23.6829 72.0119
CA -14.2955 -34.8195 17.8876
CA -22.1979 12.1795 65.3813
CA -30.2876 6.4683 58.754
CA -8.24338 -19.1134 52.6243
CA -17.9005 -31.65 66.2118
CA -19.0524 -33.1064 55.4069
CA 1.91671 -25.6287 50.2917
CA -21.4038 -29.8577 54.2974
CA -24.5869 7.17372 62.1856
CA -14.0343 -30.3209 29.3677
CA -13.881 -12.9548 46.6758
CA 3.36011 6.1245 61.1518
CA -3.20264 0.0593311 57.1609
CA -19.8258 -39.254 60.0008
CA -23.1167 -18.5813 27.3729
CA -23.7448 -30.2299 53.1433
CA -8.10069 -20.3466 15.5957
CA -13.3639 -4.41175 59.3473
CA -11.5206 -16.812 40.8145
CA -24.7995 -6.66963 74.1974
CA -30.1887 -0.725308 54.0678
CA -23.6635 -13.6299 45.1444
CA -23.5486 -27.7483 57.6453
CA -6.24585 -25.453 39.4902
CA -12.9554 -30.719 59.3651
CA 3.88151 2.17136 62.9827
CA -23.1613 -35.6286 60.301
CA -44.0419 6.11688 73.3647
CA -16.6269 -11.7112 12.1461
CA -27.3868 -3.01156 45.7135
CA 7.00565 9.01188 65.8897
CA -20.7773 -14.9503 53.7605
CA -5.02569 -25.98 52.1653
CA -2.66736 -11.9549 38.6625
CA -29.8106 -0.0948449 56.2696
CA -17.2093 2.56814 76.6181
CA -11.553 -13.698 23.3611
CA 3.55689 -22.6541 35.4308
CA -11.6874 -23.0501 58.5839
CA -0.247008 -18.186 55.0534
CA -20.3692 -25.605 70.3408
CA 0.411105 1.77773 66.428
CA -11.5582 -29.4938 30.1388
CA -10.6407 -11.6573 23.2976
CA -27.6843 0.36883 50.9522
CA -21.1422 -0.667631 18.7467
CA -2.77087 -50.9579 38.7729
CA -26.4078 -38.6213 16.7374
CA -33.8981 8.34998 70.6284
CA -15.072 -13.2448 78.8461
CA -27.7435 7.64162 66.8096
CA -22.4064 -20.9034 28.3588
CA 8.64152 -19.0087 37.0869
CA -26.5075 10.7796 59.3795
CA -3.60747 -6.4795 72.8126
CA -18.2179 -23.7449 32.5764
CA -25.4773 11.737 71.2328
CA -18.0209 -4.27596 51.5936
CA -39.5354 -2.23254 64.8004
CA -17.5469 -29.7485 63.4913
CA -21.9876 -9.23273 68.6226
CA -21.0692 10.1933 73.1775
CA -15.4311 -21.1839 56.6767
CA -15.9033 -26.4208 43.0936
CA -12.5651 -2.16472 52.1106
CA -11.3027 -23.5363 40.3269
CA -15.2953 -9.32087 70.8779
CA -23.6061 -5.37544 51.7587
CA -6.83578 -15.8634 36.5744
CA -26.5301 -5.11296 68.6921
CA -35.973 11.0898 68.3496
CA -17.0461 -4.88813 56.309
CA -31.8759 10.6214 67.4603
CA -37.843 -3.20732 71.5228
CA 4.1311 -22.4051 38.2541
CA 1.11206 -23.4226 36.7446
CA -1.72569 11.7012 62.0517
CA -19.657 -25.0014 75.8334
CA -21.7834 -19.3403 82.3083
CA -14.2007 -37.2476 17.7672
CA -22.1284 -6.78627 60.2724
CA -27.0745 -10.3364 50.3508
CA -29.1513 -16.7118 48.7114
CA -15.3752 -17.005 49.5622
CA -11.2463 -18.6859 39.3466
CA -15.7081 -20.7309 24.7809
CA -26.9921 -2.8203 50.794
CA -25.4389 15.0853 57.3014
CA -2.79489 -19.7115 66.631
CA -28.2508 -16.3777 46.3029
CA -35.0647 9.15787 68.2557
CA -25.9213 -22.5178 70.2069
CA -16.808 -6.00326 57.7778
CA -19.6034 1.80005 83.4124
CA -28.3152 -31.2098 55.5303
CA -24.9248 -4.58148 50.2119
CA -16.5379 -33.378 32.3922
CA -25.3431 -13.3001 71.3278
CA -21.1625 -2.0782 46.4818
CA -16.5243 8.80418 63.9904
CA -5.45183 -22.1014 53.211
CA -9.2342 -4.66943 66.0726
CA -9.46761 -32.4664 60.4318
CA -24.4085 -2.55801 57.0493
CA -8.51855 -28.8276 53.4379
CA -18.7726 -22.7639 83.2886
CA -0.0212586 2.48243 62.7642
CA -25.7731 -7.23352 80.3038
CA -4.96901 -20.7236 28.7103
CA -17.0119 -28.296 61.7926
CA -16.3791 -21.2547 72.2693
CA -17.146 -29.1782 86.193
CA -13.42 -36.2933 43.2408
CA -13.3085 -19.4364 61.4714
CA 1.87604 -20.3252 37.9563
CA -33.8682 -9.98885 56.0513
CA -25.6348 -10.589 67.333
CA 1.34545 7.58048 61.3143
CA -46.8971 8.28281 67.1309
CA -30.5135 -11.1142 57.7961
CA -16.6496 -20.9004 19.329
CA -12.9665 -7.65177 75.8419
CA -13.1938 -23.2603 60.1903
CA -13.6038 -12.3627 25.6686
CA -6.3758 -32.8465 64.468
CA -12.7863 -28.4665 66.2813
CA -19.3993 -16.4141 26.6321
CA 3.757 -18.5743 33.941
CA -37.6781 3.21081 64.2101
CA -16.8405 -3.0966 13.9066
CA -5.60511 -13.8343 59.6769
CA -20.2956 -31.3751 54.6578
CA -7.67685 -11.6283 65.3968
CA -18.5958 -4.1384 82.4571
CA -0.379231 -13.6063 34.9193
CA -7.81289 -16.5364 63.9235
CA -8.80042 -38.9956 43.5169
CA 2.46152 -21.4065 41.2075
CA -24.8582 -14.0767 31.2518
CA -15.0494 -15.9496 12.5242
CA -28.5588 -26.1304 52.53
CA -23.1645 12.865 72.11
CA -29.3755 -11.1474 68.2028
CA -13.9483 -8.14074 17.6414
CA -18.6506 -34.9154 66.9457
CA -22.2567 -26.931 73.5007
CA -32.2019 -6.36543 68.6924
CA -4.55058 -9.31163 67.8851
CA -7.04566 -19.6575 13.23
CA -23.9578 -36.7241 15.7066
CA -18.2852 12.8481 69.3917
CA -18.0208 -13.9468 83.6581
CA -5.29729 -11.8062 58.6417
CA -22.2364 -8.85361 12.5098
CA -25.5789 -2.45479 47.6424
CA -12.132 -7.84723 12.7146
CA -24.7245 12.8379 68.7878
CA -6.61651 -15.9194 21.512
CA -7.48115 3.53105 47.1602
CA -43.2259 9.46105 69.9384
CA -16.1111 -9.00916 11.5037
CA -4.98647 -7.61801 43.0535
CA -3.89414 2.7396 58.3272
CA 11.5929 -9.91001 39.1115
CA -31.2627 7.91403 72.1939
CA -38.2965 -3.80704 52.7081
CA -18.132 -19.3717 18.2369
CA -27.2693 -1.39799 55.7116
CA -6.8101 -34.0035 65.9821
CA -16.6288 -27.8605 65.2081
CA -4.98612 -12.8591 65.3088
CA -8.34014 -20.1647 72.4564
CA -14.5999 -17.9349 33.5414
CA -19.5933 0.619408 46.7495
CA -4.02293 -24.9581 61.3674
CA -15.8868 5.17839 43.0221
CA -21.4666 -21.4728 26.0829
CA -39.4562 -2.09287 62.6776
CA -14.8792 -14.7575 88.1055
CA -21.9342 -26.2131 58.5212
CA -15.1326 -18.0663 53.0439
CA -28.7501 -1.03089 43.8678
CA -4.84216 0.980673 61.5418
CA -17.3801 -10.9494 77.7635
CA -7.06188 -18.9696 39.298
CA -15.7016 -31.328 42.9828
CA -21.4481 -24.6079 66.45
CA -3.89395 -28.7524 40.4599
CA -21.9114 -15.9391 19.0334
CA -8.98978 -16.7294 21.8471
CA -26.6661 -18.0593 45.392
CA -23.7495 -17.6115 50.0914
CA -16.1293 -33.8095 16.9945
CA -18.0176 -23.1958 30.6939
CA -10.3105 10.4184 49.4644
CA -13.7569 -22.1749 27.3527
CA 0.869221 -24.9821 39.6729
CA -9.84091 -12.1 37.0011
CA -19.6945 -22.6582 74.5798
CA -22.2782 -4.68042 52.8961
CA -25.8573 -6.46061 56.4908
CA -13.1003 -27.3498 53.0595
CA -0.732318 -12.8693 66.1305
CA -8.93001 -32.4237 49.8386
CA -26.0457 5.21256 58.8467
CA -20.7631 -21.5518 81.8672
CA -15.4148 -9.49674 81.6335
CA -5.0171 -35.989 65.3746
CA -25.3965 -10.9941 80.8646
CA -16.9078 -26.4424 75.7203
CA -21.842 12.7225 68.9237
CA -17.6732 -27.9812 76.9948
CA -36.5769 8.08915 63.9339
CA -29.2896 2.89301 55.9585
CA -8.33163 5.85446 48.8843
CA -24.0204 5.16344 74.807
CA -4.44709 4.22617 52.0392
CA -9.93763 14.2226 42.2018
CA -24.5321 -38.9835 66.0088
CA -39.598 6.18763 65.3882
CA -13.1373 -16.6533 31.6996
CA -15.2052 -5.42514 56.8774
CA -33.8353 -7.29627 59.814
CA -23.0456 3.06438 80.5257
CA -13.1279 -30.4942 44.281
CA -2.8678 -26.114 42.1659
CA -8.07029 -2.80761 55.6944
CA -15.506 -4.19125 78.1084
CA -7.22761 -46.2509 39.5974
CA -8.64967 -27.7334 41.9342
CA -14.5072 -23.4534 20.1609
CA -32.1834 7.65903 56.4639
CA -17.1909 5.79922 37.6531
CA -9.15681 0.572814 53.2013
CA 7.76862 -12.5133 37.1207
CA -12.3831 -1.49457 48.4573
CA -28.4333 4.08056 72.6354
CA -25.6817 15.5372 68.1761
CA -27.8862 -29.3818 67.6447
CA -8.51853 -23.6174 60.5282
CA -22.0171 -16.2841 25.901
CA -16.6339 -15.8946 54.6172
CA -21.9347 18.4675 68.8233
CA -13.6631 -26.7647 62.1
CA 15.5298 -10.582 39.2154
CA -23.296 3.78212 63.1683
CA -14.9625 -11.6249 71.8842
CA -13.0758 -1.14557 50.3309
CA -18.1 -29.7277 18.2619
CA -5.8628 -27.1219 44.9175
CA -40.6469 3.2014 67.5007
CA -7.76427 -4.96166 13.5915
CA -25.7965 -29.8038 54.2456
