489

CA -13.2875 -7.78388 54.5979
CA -17.6217 -8.53678 76.4653
CA -12.6228 -28.5993 63.2917
CA -13.3615 -12.7303 44.952
CA -31.5086 -4.06402 50.2234
CA 4.1882 -17.4596 53.5279
CA -15.9874 -1.68851 49.4303
CA -21.4847 -28.4287 79.0227
CA -21.3191 -2.69807 67.2475
CA -17.5376 2.72474 19.6642
CA -9.00816 -5.31452 60.3454
CA -11.0892 -16.2739 70.005
CA -22.8998 -18.6026 83.8966
CA -15.853 -28.0012 91.2125
CA -11.9982 -0.261768 43.1112
CA -7.33205 -10.9518 37.1435
CA -7.80291 -11.4943 42.897
CA -25.5165 -20.4541 76.626
CA -35.4481 -8.32226 62.4719
CA -20.3098 -32.6579 56.994
CA -31.0839 -14.1975 60.6602
CA -10.0237 -2.88347 62.4572
CA -34.4315 -14.2274 55.1118
CA -13.6235 -8.92091 8.44836
CA 1.35893 -20.5386 57.9215
CA -14.5153 -10.8766 16.3371
CA 7.6504 -14.3393 40.264
CA -19.8097 -15.5662 88.6663
CA -29.3485 -7.79101 75.3529
CA -14.5958 -25.7646 86.0854
CA -17.5073 -19.2946 49.3011
CA -24.0804 -28.8968 21.2771
CA -9.34278 -17.0569 45.2681
CA -32.0073 -16.6352 67.1718
CA -19.2015 -15.5366 72.9485
CA -30.3174 -1.24933 58.3602
CA -28.2051 -8.63619 59.424
CA -15.5384 -24.045 27.777
CA -30.611 -37.5221 67.7084
CA 10.6854 -13.5749 36.0087
CA -23.1707 -20.2384 70.7976
CA -2.85774 -18.937 61.7753
CA -11.8314 -1.71733 16.2585
CA -26.8189 -15.3827 59.0043
CA -30.4264 0.560476 65.6807
CA -27.7506 -6.82848 59.1814
CA -29.8666 -13.4273 70.3298
CA -10.5644 -0.892115 4.27411
CA -15.1359 -20.005 25.0158
CA -16.8566 -22.3046 90.8363
CA -35.3948 -16.1112 45.4176
CA -16.0208 -31.4675 63.8427
CA -9.54518 -9.31423 70.8449
CA -22.1617 -7.11402 53.6362
CA -14.6039 -34.0344 46.6894
CA -3.30946 -1.79869 12.4376
CA -8.64371 -2.83582 56.8176
CA 1.73033 -21.7358 54.5541
CA -22.8707 -33.2576 82.255
CA -11.7872 -34.1608 18.8118
CA -7.14722 -10.4717 65.3681
CA -20.318 -12.7908 21.1881
CA -5.2942 -2.03495 53.0672
CA -15.0585 -29.2088 62.3107
CA -30.349 -6.0045 62.1742
CA -10.8401 -29.1394 35.9098
CA -4.3802 -9.03312 36.6202
CA -26.8059 -4.13218 48.5207
CA -30.4582 -10.0781 56.552
CA -15.7202 -3.47204 79.4134
CA -17.2048 -0.210534 57.4934
CA -31.9595 0.835638 40.591
CA -7.17774 -2.69481 66.8674
CA -24.2819 -5.28267 55.8979
CA -14.7744 -28.068 29.4547
CA -1.56793 -2.88171 51.5593
CA -16.475 -25.2583 18.2216
CA -18.427 -3.98243 65.6127
CA -23.213 -17.0025 80.2774
CA -37.4791 -0.582609 47.4194
CA -12.4928 -5.45229 59.0772
CA -18.9433 -33.8866 86.8505
CA -18.1744 -24.8394 19.5231
CA -5.88965 -30.6515 35.6677
CA 1.58823 -13.4035 67.104
CA -20.175 -23.659 72.3013
CA -22.1094 -29.3746 76.3545
CA -30.9756 3.23363 68.9767
CA -9.91505 -5.27206 45.3046
CA -15.0571 -11.8843 12.0079
CA -10.3358 -1.22912 12.5372
CA -21.6529 -11.4801 70.1995
CA -14.6913 -12.6835 29.0587
CA -24.9631 1.64539 80.421
CA -18.5005 -4.9408 60.6371
CA -6.66774 0.951231 60.0998
CA -17.8191 -6.14575 72.0459
CA -25.1285 -10.7487 76.2536
CA -23.024 -27.6353 57.9138
CA -2.36422 -12.1597 37.8311
CA -21.9369 -24.9892 71.9734
CA -23.0574 -15.3935 20.9487
CA -12.7723 -10.6988 24.2618
CA -17.8377 -16.0861 81.9952
CA -32.0299 -20.1663 61.7644
CA -30.9066 -12.0315 60.4832
CA -18.3921 -30.5469 61.955
CA -25.7625 -7.4853 58.5533
CA -25.1474 -3.28527 79.7878
CA -17.8647 -37.1416 16.586
CA -24.0332 -7.5609 56.4226
CA -34.3789 -3.28854 49.7435
CA -17.0988 -19.9496 54.2716
CA 5.33523 -16.8081 37.9625
CA -33.2822 -39.9327 66.4838
CA -33.7513 -15.0535 50.009
CA -22.3185 -31.0424 82.2959
CA -12.4256 -16.7831 35.8701
CA -28.7869 -10.8079 59.3099
CA 1.47827 -18.8487 51.0436
CA -14.4059 -18.2273 13.9662
CA -20.794 -15.0981 76.2461
CA -21.2753 -3.85344 42.2998
CA -21.0582 -24.167 38.1823
CA -22.3683 -20.4478 82.7839
CA -8.27057 2.21882 67.1823
CA -5.42377 -11.7087 74.2442
CA -7.98884 -11.0013 70.7617
CA -14.2291 -32.502 47.6125
CA -10.832 6.50126 39.707
CA -32.4535 -9.80181 60.3305
CA -20.2264 -28.9734 83.9383
CA -20.1833 -4.55004 66.4495
CA -24.3739 2.12759 56.6972
CA -15.7174 -12.8336 14.8691
CA -19.5019 8.57761 53.4513
CA -17.674 -23.4115 44.2234
CA -28.697 0.0681799 48.7624
CA -9.01233 -15.1764 55.6323
CA -31.406 -35.1203 56.3381
CA -1.92868 -16.8463 60.1849
CA -36.3564 -6.71637 69.9052
CA -13.8888 0.447327 53.0892
CA -27.8764 -11.7492 60.9899
CA -19.2438 -25.762 71.4384
CA -23.9324 -11.0765 42.0186
CA -20.2584 -12.2156 65.8396
CA -13.2333 -36.2955 43.3727
CA -20.0513 -36.6239 61.4885
CA -6.50546 -21.9313 69.741
CA -37.8939 -6.0379 64.5218
CA -2.16433 -14.2532 67.8898
CA -15.5956 -22.1222 18.2172
CA -24.9635 -27.9577 75.9254
CA -15.5777 -14.7984 90.5894
CA -35.5281 -1.70177 54.8347
CA -21.637 -16.425 15.5436
CA -23.0612 -31.9777 55.8411
CA -21.094 1.51583 58.5388
CA -17.2997 -23.3577 38.2876
CA -19.5877 -30.1282 22.2727
CA -14.684 2.65648 83.9207
CA -12.0117 2.42192 45.3877
CA -18.053 -15.0359 46.9525
CA -0.136516 -25.2838 41.0022
CA -27.7999 -13.5043 58.303
CA -14.8151 -10.7205 27.3029
CA -29.5432 -5.50441 47.7225
CA -22.7204 -25.3691 69.2597
CA -25.2728 -30.9952 57.4034
CA -9.78744 -36.4702 46.7385
CA -28.7927 -30.0902 74.6874
CA -20.1161 0.420707 50.5379
CA -15.3711 -4.52043 45.3922
CA -14.8757 -25.127 72.2992
CA -24.4603 -13.0991 15.7759
CA -23.1837 -9.6748 78.8173
CA -5.62886 -24.3649 67.772
CA -8.53162 -19.0244 17.0608
CA -36.5658 -4.79962 66.1321
CA -29.3513 -34.2885 64.1957
CA -15.2358 -5.75306 12.3032
CA -4.39756 -29.4552 45.3452
CA -40.1534 -13.5637 62.7476
CA -24.2182 -29.6142 80.2221
CA -3.56476 -10.9993 44.2992
CA -18.4011 -37.6995 90.182
CA -13.9289 -29.7131 89.8782
CA -23.8787 -18.744 74.0273
CA -21.9445 -14.5889 12.4552
CA -27.3703 -17.3656 57.1532
CA 3.62282 -26.8924 47.8512
CA -22.7379 -15.3512 73.8152
CA 14.6672 -11.9115 35.5027
CA -18.754 -5.43404 86.6212
CA -13.6365 -15.7283 50.4631
CA -17.3535 -14.9608 25.2833
CA -11.6796 -35.0145 49.6145
CA -15.984 -23.7921 21.4652
CA -17.8076 -8.47363 49.6167
CA -27.8774 -0.418455 40.248
CA -2.66126 -3.01227 53.7268
CA -11.3167 -17.8401 17.6422
CA -27.5057 -8.19696 44.8725
CA -14.9078 0.335909 17.179
CA -7.16329 -9.95321 42.0231
CA -25.1616 -25.1358 75.2453
CA -19.1535 -9.73798 85.6618
CA -19.7957 -34.2793 89.6763
CA -16.4033 -36.779 67.0717
CA -14.3989 -20.1922 26.7939
CA -26.731 -31.5633 60.7873
CA -1.57348 3.12918 -1.88602
CA -27.4939 4.67204 38.7651
CA -18.7784 -19.8406 40.7502
CA -16.6751 -22.6799 94.5955
CA -10.6573 -20.2182 56.4519
CA -29.1752 5.08846 68.3107
CA -26.3361 -11.7821 74.8062
CA -17.0025 -21.033 14.87
CA -24.3913 -21.8275 81.0599
CA 4.43171 -19.5272 46.2406
CA -16.9522 -13.0762 80.616
CA -14.6557 -9.68551 56.2273
CA -5.1704 -11.5744 58.8017
CA -18.9166 -25.0432 27.7187
CA -16.1365 -10.1453 79.4222
CA -27.0558 -7.89145 79.2813
CA -9.11245 -11.0158 37.4146
CA -35.1575 -18.8668 64.9406
CA -11.5476 -17.3045 24.8547
CA -30.3037 -24.4101 63.8121
CA -17.6005 -24.7998 88.0621
CA -27.1908 -19.5324 45.4031
CA -32.5798 0.394603 42.7501
CA -29.3468 2.27631 40.0529
CA -40.1066 -6.77589 69.9444
CA -30.6675 -7.95608 63.2495
CA -22.2593 2.4145 66.5371
CA -30.9494 -7.74887 55.6567
CA -3.21178 2.42202 67.53
CA -1.43941 -26.6935 47.0309
CA -24.7372 -35.8457 47.7168
CA -30.1695 -0.467169 44.0712
CA -4.0646 -9.00165 71.6608
CA -17.4705 -32.5931 65.579
CA -13.3467 -8.18223 24.9399
CA -16.7486 -8.08663 51.9326
CA -24.6472 -0.323258 81.8632
CA -19.8262 5.37339 63.6262
CA -13.6443 -8.55633 58.7249
CA -26.8969 -12.1811 81.3302
CA -29.6116 -0.52842 59.8678
CA -28.3174 -7.62559 70.1366
CA -9.15509 -21.3033 15.9473
CA -9.31918 -36.1483 64.55
CA -28.0289 -33.9956 50.8452
CA -26.5138 -4.23157 64.8873
CA -15.7857 -5.50251 48.3315
CA -9.86589 -2.49568 65.1254
CA 2.7549 -25.4984 41.6531
CA -23.326 5.92288 55.9304
CA -24.5548 -12.7729 75.8602
CA -12.4285 -25.8212 73.2671
CA -18.4423 -7.5024 87.1325
CA 0.369013 -18.1301 66.1587
CA -22.6852 -30.3139 51.8835
CA -6.69051 -8.51616 15.136
CA -20.2668 -28.575 43.7542
CA -8.29857 2.05285 71.7413
CA -21.5113 6.95794 53.7799
CA -28.149 9.6271 68.3035
CA 8.34841 -22.6833 46.6828
CA -18.4681 -11.725 88.1911
CA -23.0682 6.45744 57.955
CA -18.3865 2.18316 58.7104
CA -15.7219 -29.605 41.7799
CA -9.72506 -22.9259 26.3147
CA -12.4252 -18.6061 22.5992
CA 5.41665 -15.7809 49.7789
CA -12.0277 -36.5988 19.0337
CA -20.6317 -25.3732 67.1074
CA -28.2203 -20.004 75.5458
CA -34.5638 -10.0906 66.1139
CA -1.39769 -9.79862 73.8415
CA -19.6242 -12.2725 73.3923
CA -6.43857 -28.4223 39.5096
CA -11.8868 -20.4411 35.9565
CA -28.7654 -30.3172 63.1738
CA -15.1585 -26.2904 35.215
CA -5.11868 -12.9265 44.82
CA 2.77799 -23.9301 39.3186
CA -24.21 -21.5853 71.4415
CA -26.7787 2.66478 54.5813
CA -20.5526 -10.0255 73.6189
CA -21.7966 -14.4274 57.0839
CA -8.20611 -17.0163 55.4506
CA -6.56017 -28.9987 48.7748
CA -30.9614 0.617503 61.0556
CA -36.0274 4.89223 60.3243
CA -8.8641 -13.843 66.1284
CA -4.04617 -15.9037 58.8295
CA -21.791 -16.0156 22.2454
CA -23.3146 -31.0375 20.11
CA -10.5522 -2.14006 2.46452
CA -40.9083 -2.72846 60.3279
CA -18.3755 -28.5694 18.4433
CA -11.1318 -5.22072 62.2877
CA -21.06 -14.6356 38.6241
CA -37.843 -3.20732 71.5228
CA -26.0008 -31.918 83.0034
CA -21.1448 -3.21147 77.1892
CA -27.6744 -37.2752 57.0289
CA -19.523 3.24966 86.3538
CA -6.76338 -0.514836 54.0049
CA -4.92435 -11.58 67.6681
CA -22.9329 -17.0047 50.9782
CA -12.0766 -0.427621 19.2389
CA -2.91417 -0.00883454 3.90576
CA -14.4342 -32.9158 51.9917
CA -25.2273 -28.3395 74.023
CA -4.36998 -10.1651 39.6913
CA -13.6708 -24.7034 74.6163
CA -25.0715 -15.8037 57.3318
CA -20.7192 -39.372 45.211
CA -15.3515 -21.1495 96.5197
CA -13.5656 -13.294 26.6209
CA -0.397815 -17.8018 49.9413
CA -11.577 2.87049 41.6308
CA -15.9931 -16.8009 72.8443
CA -25.8193 -31.444 51.2436
CA -10.4845 -0.535056 44.8414
CA -16.298 -24.6374 76.0576
CA -17.0191 -9.36877 19.3571
CA -30.7862 -0.978754 70.8714
CA -35.8519 -3.15393 57.7004
CA -26.592 -16.7395 54.804
CA -32.0159 -13.0442 65.3685
CA -12.5198 -11.5523 67.6266
CA -25.9416 -4.06879 76.8343
CA -25.9427 -34.7412 63.3653
CA -22.2783 -7.69545 44.932
CA -0.0212586 2.48243 62.7642
CA -17.6002 -16.3318 54.0453
CA -12.5262 -6.78462 80.1204
CA -17.0119 -28.296 61.7926
CA -9.91776 -13.8538 31.6757
CA -17.146 -29.1782 86.193
CA -21.1416 -17.4492 49.0685
CA -5.33263 -19.9777 74.6479
CA -11.0987 -25.2657 70.5168
CA -21.2996 -16.1795 40.8276
CA -31.5005 -13.5409 67.6379
CA -15.0898 -0.76426 82.3917
CA -10.3832 -11.233 57.5438
CA -10.9527 -15.7251 55.772
CA -16.6496 -20.9004 19.329
CA -33.2677 -9.10202 64.2561
CA -16.6742 -24.9494 84.0946
CA -14.6014 -1.99501 58.3869
CA -8.85432 -14.6458 57.6591
CA -18.5307 -29.5244 52.9907
CA -29.483 12.642 66.2931
CA -3.47061 -10.2929 60.2778
CA -5.24194 -11.6426 40.311
CA -26.9915 16.8527 69.3449
CA -27.7333 -13.3726 67.1761
CA 5.59874 -18.5216 58.3578
CA -6.23445 -28.5265 51.4874
CA -25.4044 -19.837 71.9438
CA -2.95003 -15.1394 57.4522
CA -10.2835 -31.136 72.4149
CA -5.13325 -28.9456 53.5828
CA -20.1132 -28.1939 76.0219
CA -22.398 -19.956 86.5304
CA -19.1851 -13.9351 63.815
CA -5.08333 -10.9797 70.14
CA -10.162 -9.71963 36.021
CA -25.2245 -36.8692 16.49
CA -19.8538 -39.1067 47.8925
CA -22.7859 -4.16848 53.5295
CA -21.6278 -10.9894 50.7611
CA -37.8496 -11.2348 63.2701
CA -14.9114 -27.0945 43.4969
CA -18.1116 -18.8999 15.2319
CA -8.57737 -5.7725 48.8862
CA -8.85463 1.75755 6.6754
CA -9.60064 -12.2373 68.6406
CA -28.1559 -35.2923 65.9975
CA -5.19051 -4.60521 2.2787
CA -21.0188 -34.591 15.1635
CA -12.132 -7.84723 12.7146
CA -5.59701 -15.0815 59.5629
CA -16.5685 -22.3656 75.6397
CA -20.8691 -20.3568 92.261
CA -7.41789 -3.44546 2.68299
CA -7.77233 -5.29048 50.588
CA -16.3267 -1.35252 84.5482
CA -22.6765 -22.1464 83.4363
CA -1.73285 -3.7594 5.0631
CA -3.31331 4.25231 1.52442
CA -29.677 4.21181 70.8301
CA -18.132 -19.3717 18.2369
CA 7.39371 -20.282 49.4444
CA -22.9823 -21.2975 50.3551
CA -16.6288 -27.8605 65.2081
CA -30.1995 19.5576 67.7804
CA -33.8031 -16.5548 60.1672
CA -8.32214 -15.3587 34.4938
CA -7.41168 -29.5462 32.5572
CA -2.02437 -28.7299 47.7815
CA -11.8533 -13.8602 22.5697
CA -0.564211 -1.27578 49.1284
CA -33.8878 -5.87669 57.0512
CA -25.6396 -16.2324 68.4456
CA -12.6834 -4.37362 12.7849
CA -22.6574 -14.1984 24.5099
CA -26.7198 -10.3941 47.7036
CA -19.8748 -9.96985 24.6552
CA -18.0205 -17.5703 9.98727
CA -6.70733 -12.9281 43.4705
CA -12.3268 -29.7339 70.0162
CA -14.1747 -16.783 77.5195
CA -11.5608 -16.3296 53.0769
CA -21.9114 -15.9391 19.0334
CA -13.9852 -6.15984 48.7544
CA -16.9664 -4.99393 80.2625
CA -10.8823 -32.3722 61.8146
CA -21.4105 -26.3541 70.9099
CA -18.0176 -23.1958 30.6939
CA -6.67681 3.55556 67.1288
CA -18.5046 -27.9409 28.7836
CA -11.1524 -35.196 47.5822
CA -19.7109 0.995621 78.4475
CA -11.1401 -33.468 52.0757
CA -1.1938 -20.9933 57.2074
CA -12.7894 -39.0256 69.8549
CA -6.79199 -2.38963 9.86184
CA -13.3057 -27.6734 88.1752
CA -28.0482 -27.3596 78.3022
CA 0.556405 -32.473 46.4159
CA -22.4683 -19.0432 48.0575
CA -15.3967 -37.1348 50.4062
CA -16.6934 -20.5403 34.1266
CA -24.2093 -36.7994 53.6349
CA -31.4225 -5.27564 65.1077
CA -40.2897 0.525372 63.4726
CA -3.30464 -26.3257 55.2875
CA 3.08385 -20.7581 34.5359
CA -32.6957 -10.0437 58.208
CA 5.53182 -20.7016 49.419
CA -9.6909 -14.6909 64.1041
CA -24.8635 -8.98889 60.9658
CA -23.7043 -8.80329 45.4659
CA -16.4415 -21.5242 36.5818
CA -13.4894 -22.4999 41.389
CA -17.6107 -10.7204 27.116
CA -19.8211 -32.2127 19.5019
CA -32.0422 -10.2247 65.2053
CA -0.983352 -14.0097 39.7003
CA -37.2453 -12.8578 57.919
CA -7.79345 -15.675 67.551
CA -23.6266 -0.92655 53.1332
CA -11.4534 -13.7538 70.1579
CA -24.7051 -36.5306 67.2725
CA -17.3398 -17.8467 13.773
CA -38.3388 1.95714 57.9728
CA 4.21158 -17.9706 67.9024
CA -21.4747 -23.2382 79.7716
CA -16.1372 -29.2253 20.3694
CA -21.7629 -24.7821 48.2208
CA -6.47741 1.69078 7.445
CA -10.8349 -19.1793 51.9152
CA 1.70995 -18.9664 59.2796
CA -37.6617 -8.42835 69.3774
CA -11.9978 -30.8864 17.962
CA -25.8337 -19.0658 54.0754
CA -21.7981 -5.37077 63.5103
CA -6.86439 -2.58166 17.1208
CA -38.9904 -9.42028 67.5996
CA -29.421 -22.8313 78.6288
CA -29.5104 -1.94269 61.6149
CA -1.35256 -30.2643 44.1978
CA 6.30618 -23.1399 45.9554
CA -0.587406 4.67995 61.5556
CA -22.2696 -33.4286 58.7776
CA -22.1789 5.64028 60.2906
CA -7.76427 -4.96166 13.5915
CA -1.97191 -27.4499 39.1052
