489

CA -29.1775 -7.38125 55.181
CA -8.14507 -14.6773 74.8326
CA -7.88962 -11.6138 27.7496
CA -2.83989 -28.9661 37.7842
CA -22.7593 -16.0694 76.688
CA -11.3487 -8.39812 66.5335
CA -1.0493 -6.46511 51.4663
CA -10.8722 -26.099 34.0466
CA -24.9815 -11.7893 48.7577
CA -20.2557 -6.79851 53.7356
CA -23.8347 -5.33854 61.1195
CA -18.9906 -26.1165 66.7767
CA -24.4877 -35.0721 65.2087
CA -31.9168 -19.6878 55.1998
CA -18.5256 -21.6965 36.0417
CA -13.1579 -37.3757 61.4655
CA -16.9806 -16.5638 31.6601
CA -9.86325 -7.48591 30.7492
CA -35.4481 -8.32226 62.4719
CA -17.4866 -27.4456 65.9511
CA 1.27947 -5.21918 57.7068
CA -18.2634 -15.736 68.5308
CA -16.4364 -17.884 23.8525
CA -20.7817 -10.7567 60.7471
CA -10.9378 -16.6531 75.3748
CA -26.4125 4.96031 72.1948
CA -21.0248 -15.4647 72.875
CA -22.0249 -14.6539 20.3151
CA -12.6363 -21.8065 85.0977
CA -10.8914 -9.26167 42.0992
CA -35.922 -5.85157 60.0088
CA -27.7981 -10.3917 54.2232
CA -25.1863 -27.7951 52.464
CA -13.0966 -19.8005 18.7166
CA -0.360281 -29.3449 42.3517
CA -34.3842 -13.6817 66.4843
CA -14.7482 -23.249 76.426
CA -15.5384 -24.045 27.777
CA -12.083 -24.2981 41.3005
CA -24.3818 4.48452 59.9989
CA -7.67695 -14.1964 42.0353
CA -6.79312 -6.71114 51.007
CA -11.8314 -1.71733 16.2585
CA -16.4694 -22.91 87.5745
CA -34.3555 -1.8115 61.4158
CA -13.9335 -40.9881 66.0784
CA -21.3977 -31.5489 60.2464
CA -27.9036 -37.7832 55.5393
CA -9.92559 0.498793 63.2239
CA -24.9107 -8.87275 58.5263
CA -13.0501 1.95259 18.9658
CA -15.2712 -17.7743 31.442
CA -15.4926 -11.8446 58.921
CA -39.3112 -12.9312 65.8805
CA -26.2925 -9.16898 53.8811
CA -38.8538 -11.7963 61.7562
CA -8.64371 -2.83582 56.8176
CA -21.245 -21.5436 75.37
CA -22.8707 -33.2576 82.255
CA -22.2187 -23.1261 58.3335
CA -38.1217 -5.24069 61.0363
CA -44.3029 -16.1729 71.8866
CA -25.727 -3.91506 55.5507
CA -24.7004 -4.33967 67.2992
CA -10.0652 -17.3241 9.52875
CA -21.0021 -9.02896 50.0995
CA -18.8893 -21.796 15.5238
CA -22.9402 -13.9563 17.6993
CA -5.96016 -2.95687 61.1865
CA -35.8093 -0.871608 49.8
CA -13.3647 -15.0085 76.4419
CA -8.539 -4.57816 67.0876
CA -43.4245 -16.3408 61.6687
CA -24.2819 -5.28267 55.8979
CA -40.5213 -8.99937 63.3714
CA -16.7765 -8.66505 59.8914
CA -16.475 -25.2583 18.2216
CA -11.6031 -13.7156 31.9971
CA -20.3644 -4.34986 47.489
CA -22.5306 -5.74171 43.7669
CA -17.7842 -13.1294 20.2229
CA -19.6628 -19.6995 87.2238
CA -18.1744 -24.8394 19.5231
CA -10.0239 -14.9671 47.2863
CA -18.9729 -28.6423 51.0217
CA -42.0246 -14.8251 65.7487
CA -19.8348 -16.4423 20.996
CA -9.60644 -15.4928 24.1324
CA -8.32028 -21.042 50.7212
CA -15.0571 -11.8843 12.0079
CA -19.4237 -6.79135 64.4195
CA -31.8969 -2.2409 66.5134
CA -33.4471 -22.0504 54.6711
CA -11.7831 -7.49388 74.5703
CA -19.1932 3.35303 52.6044
CA -21.1895 -35.9823 79.4233
CA 7.48046 -16.001 39.9551
CA -19.517 -10.0606 80.1239
CA -16.4709 -8.47779 79.3892
CA -8.41704 -0.353063 51.5063
CA -5.23461 -18.1305 60.1095
CA -6.98305 -17.1172 60.9566
CA -21.4515 -19.8419 54.8674
CA -42.5386 -15.6388 77.384
CA -4.9555 -6.44038 -2.21478
CA -26.4218 -38.1675 67.5839
CA -2.87304 -13.4044 55.4277
CA -15.1756 -24.1511 43.591
CA -13.4852 -24.8772 82.0211
CA -10.1019 -6.46407 54.5018
CA -19.3772 -11.3157 62.6356
CA -34.3789 -3.28854 49.7435
CA -25.013 -23.1848 36.7843
CA -31.5211 5.44396 61.5782
CA -14.4293 -42.8893 65.4373
CA -0.267967 -22.0794 39.8689
CA -11.3939 -22.7956 86.3062
CA -28.2174 -31.2471 69.0837
CA -4.12582 -5.65949 1.01288
CA -12.8345 -1.52702 43.5525
CA -15.0956 -12.6621 78.1128
CA -34.9729 -16.6975 54.547
CA -6.74484 -24.5039 37.4139
CA -16.3574 -32.2926 47.9414
CA -11.7567 -3.65678 16.7029
CA -19.9435 -11.6163 58.6162
CA -16.1365 -22.7677 26.0387
CA -36.8374 -8.83098 56.8137
CA -9.50124 -30.0571 46.6366
CA -10.832 6.50126 39.707
CA -10.9695 -17.2936 49.3607
CA -19.1636 -6.41597 49.1447
CA -40.3468 -6.43501 69.6928
CA -16.2945 -23.6327 33.7728
CA -20.0864 -19.4788 82.6946
CA -11.354 -8.98446 58.3216
CA -10.443 -19.7765 12.5562
CA -8.71969 -21.5667 52.5154
CA -16.8451 -29.8204 52.9897
CA -16.2823 -19.5527 21.5574
CA -27.0738 -1.80822 71.3457
CA -2.8043 -15.5899 35.604
CA -43.1463 -9.40521 76.0462
CA -19.6258 4.04439 56.9286
CA -20.2482 -11.273 19.187
CA -2.1041 -19.9476 34.0768
CA -1.56986 -22.7057 56.391
CA -43.8054 -13.3228 72.5232
CA -22.1849 3.46353 42.3546
CA -6.50546 -21.9313 69.741
CA -21.004 -14.6431 89.4601
CA -38.083 -16.7247 76.5628
CA 2.83576 -17.4271 65.4579
CA -19.1351 -36.3425 66.3072
CA -14.5532 1.51263 41.1654
CA 13.0266 -16.7569 39.986
CA -10.4498 -31.7481 50.1305
CA -10.8556 -22.8098 42.0959
CA -11.6526 -19.9636 37.6899
CA -8.86121 -34.7707 16.846
CA 2.93315 -20.1662 68.2229
CA -4.81712 -27.1144 60.2531
CA -40.4576 -5.25739 49.4464
CA -24.763 0.603789 43.3377
CA -13.9869 -34.4452 59.9014
CA -12.3499 -16.7183 64.6004
CA -24.4763 -16.0228 69.8292
CA -21.9682 -10.4806 57.2176
CA -16.5447 -24.6881 23.5833
CA -3.04752 -29.1054 47.552
CA -21.4754 -30.718 68.831
CA -17.9933 -33.5944 52.8531
CA -23.8516 -32.2025 71.4851
CA -13.1249 -31.8778 65.3705
CA -27.241 -19.5003 58.3675
CA -3.55985 -5.87081 61.0123
CA -21.0267 -13.3618 87.9413
CA -21.8336 -28.5835 70.8735
CA -8.53162 -19.0244 17.0608
CA -25.9645 -2.22605 57.7601
CA -15.1681 -27.7862 61.8483
CA -15.9359 -18.2069 55.3149
CA 0.255599 -28.312 38.6235
CA -18.8102 -14.6517 62.3626
CA -9.48923 2.99221 40.3159
CA -40.252 -6.15409 59.8111
CA -3.75956 -9.48258 48.809
CA -15.3779 -22.4733 34.9032
CA -23.4413 -24.4453 70.5416
CA -39.7026 -18.4583 64.8604
CA -12.2921 -30.3349 61.2534
CA -10.3292 -12.4427 30.7714
CA -29.5355 -16.1414 66.8336
CA -13.3456 -23.0431 16.9248
CA -8.04289 5.44375 43.7385
CA -13.5537 -24.7073 87.7772
CA -36.0913 -23.803 53.4259
CA -2.01529 -23.6505 66.6039
CA -12.2877 -2.59456 12.6922
CA -17.8076 -8.47363 49.6167
CA -22.397 -14.1288 77.6979
CA -3.98229 -23.6123 67.8253
CA -11.3167 -17.8401 17.6422
CA -39.664 -14.5443 68.2654
CA -19.6724 -26.3627 83.0802
CA -24.6482 -30.4662 16.2742
CA -6.93988 -30.5995 56.5254
CA -30.7904 -9.34303 62.212
CA -27.8066 -10.6257 57.9999
CA -16.4033 -36.779 67.0717
CA -2.29989 -14.0181 37.2841
CA -11.8068 -14.0449 29.3382
CA -10.4155 -14.4101 64.9537
CA -24.3421 -10.2761 56.876
CA -40.6883 -14.5101 73.1063
CA -2.27331 -9.54219 -2.91249
CA -21.374 8.10498 63.9775
CA -29.1752 5.08846 68.3107
CA -6.55217 3.99649 11.2836
CA -41.0645 -11.1072 61.8398
CA -41.2256 -17.8717 70.7654
CA -10.2343 5.63298 49.3046
CA -6.19492 -15.9162 31.8606
CA -14.6557 -9.68551 56.2273
CA -24.8587 -13.1118 43.3255
CA -25.6561 -30.0797 20.9205
CA -3.36956 -24.5979 54.6962
CA -31.0083 -13.4417 51.1396
CA -22.8146 -25.1864 36.2275
CA -38.8451 -18.3615 75.2531
CA -44.8692 -7.25567 56.3204
CA -4.62606 -27.4963 33.5756
CA -17.6005 -24.7998 88.0621
CA -17.1967 -15.9679 39.502
CA -8.06314 -16.5114 68.7043
CA -25.0826 -6.81274 44.1169
CA -13.1649 -4.60729 11.698
CA -9.38931 -13.9362 14.7055
CA -20.405 -13.355 55.837
CA -11.5053 -3.14568 63.8712
CA -1.0491 -23.7629 54.22
CA -1.43941 -26.6935 47.0309
CA -24.7372 -35.8457 47.7168
CA -20.7571 -0.459479 72.1024
CA -15.5717 -28.5314 52.3426
CA -24.9576 -19.5014 72.9292
CA -18.516 -11.5505 18.4456
CA -38.2146 -14.3156 81.9817
CA -15.9126 -18.2512 40.2448
CA -15.759 -26.9573 86.1291
CA -27.1559 -37.4804 51.9677
CA -11.1385 -19.0217 75.3883
CA -25.2616 -25.8529 57.668
CA -31.716 2.01471 62.6066
CA -13.591 -21.3496 77.3639
CA -22.9268 -26.7532 37.9509
CA -30.5682 -12.2499 57.925
CA -32.2911 0.113294 64.0013
CA -5.9562 -6.99183 32.2009
CA -24.2581 3.21569 75.1778
CA -3.48577 -14.185 47.5761
CA -25.2841 -39.1466 72.3901
CA -16.9278 -15.1995 22.0947
CA -19.8058 0.476231 48.6401
CA -5.2147 -18.37 74.1572
CA 0.369013 -18.1301 66.1587
CA -1.33525 -11.1984 56.2939
CA -9.32905 -10.39 30.4929
CA -19.1123 -16.1578 65.8654
CA -16.1966 -16.4677 11.3827
CA -36.6293 1.0212 48.5313
CA -28.149 9.6271 68.3035
CA -26.4481 -27.5915 70.5797
CA -18.4681 -11.725 88.1911
CA -20.9465 -26.0963 58.1051
CA -9.06519 -12.772 48.78
CA -18.9758 -28.5507 64.9714
CA -3.24922 0.0657313 59.5955
CA -0.39791 -20.0617 65.5405
CA -25.214 -18.7943 81.7569
CA -7.05047 -18.7471 33.7746
CA -38.3884 -14.8927 78.8421
CA -42.0246 -6.82269 60.0503
CA -37.3658 -8.56772 71.3682
CA -4.11798 -27.2391 65.8879
CA -16.0866 -26.8632 44.098
CA -30.445 -14.9491 71.2881
CA -22.6644 -30.9426 84.2129
CA -29.0126 -24.89 42.7271
CA -26.0837 -5.67501 56.1371
CA -32.7966 -5.57403 51.7838
CA -37.4427 -17.0314 63.6958
CA -0.648759 -2.18561 60.9923
CA -22.9467 -16.8918 41.399
CA -3.29625 -4.55614 59.2835
CA -12.1025 -16.2629 79.6864
CA -12.9923 -28.3885 87.2433
CA -3.27423 -30.3544 45.5498
CA -17.7196 -11.8449 69.5864
CA -8.95214 6.6504 44.8372
CA -3.82539 -11.2457 35.4271
CA -10.0042 -27.602 34.8832
CA -40.1156 -11.2902 65.7685
CA -10.9131 -25.2093 62.4683
CA -35.1989 -17.3069 59.0494
CA -1.1659 -9.57107 48.8516
CA -20.0264 -29.9924 16.0805
CA -34.3906 -17.4528 68.0403
CA -25.2982 7.82235 73.06
CA -16.6284 -40.1934 65.9244
CA -18.4694 -11.3442 16.6275
CA -5.8074 -5.9327 30.3883
CA -24.756 -32.54 86.1406
CA -12.6321 -35.2976 67.3356
CA -26.1912 -12.0974 54.199
CA -16.4324 -33.8431 54.5162
CA -15.5593 2.25749 55.4029
CA -20.8248 -25.4678 23.4772
CA -2.91417 -0.00883454 3.90576
CA -36.7427 -11.4539 73.9548
CA -23.6025 -14.2379 39.2123
CA -28.5653 -21.9028 54.8755
CA -1.33938 3.71885 1.62726
CA -24.1405 -22.4305 86.829
CA -12.4531 -5.53985 75.0416
CA -11.3587 -22.1885 15.8092
CA -13.3633 -13.4439 14.7965
CA 1.78196 -21.9098 67.2717
CA -7.72972 8.60142 50.3954
CA -10.9544 -0.00433172 42.8117
CA -25.8193 -31.444 51.2436
CA -10.177 -13.578 63.2056
CA -33.8237 -20.3082 54.1437
CA -10.4424 -2.63005 48.7961
CA -17.3719 -11.8565 12.6265
CA -18.0361 -8.67044 85.9569
CA -24.3066 -9.84608 44.73
CA -14.5121 -32.2935 48.1627
CA -7.09069 0.876983 47.0951
CA -10.2385 4.59068 39.1462
CA -26.9679 -2.23858 68.1211
CA -42.8948 -17.4219 74.7107
CA -27.3012 -2.68419 54.682
CA 5.98042 -21.7648 68.2983
CA -0.0671861 -6.26718 47.5005
CA -26.0884 -26.255 53.6951
CA -9.32034 0.457217 15.1325
CA -23.0322 -1.52574 70.7478
CA -26.9736 -6.17888 75.1365
CA -19.3119 -30.3658 41.9049
CA -25.6201 -24.6421 44.9831
CA -45.624 -17.4529 79.0916
CA -14.3765 -13.6392 49.2523
CA -22.4382 -28.8073 54.6187
CA -24.5309 -39.1547 51.1546
CA -27.7186 -4.91361 69.2174
CA -16.6496 -20.9004 19.329
CA -1.01118 -6.7354 58.9211
CA -19.9182 -3.45565 79.1866
CA -20.9918 -15.9103 83.3235
CA -22.2615 -23.1984 54.041
CA -32.9317 -0.300767 58.7264
CA -13.2476 -19.291 39.7115
CA 0.73619 -25.4822 51.492
CA -31.1252 -7.3541 58.3855
CA -4.66267 -7.73607 51.837
CA -27.7333 -13.3726 67.1761
CA -29.8164 -36.1119 66.5077
CA -16.0955 -5.55572 52.5049
CA -25.2538 -22.6196 44.4989
CA -3.55318 -15.6501 56.1152
CA -18.336 -16.3607 42.0715
CA -20.7551 -23.9268 34.0794
CA -2.86071 -23.9572 45.2803
CA -33.9343 -3.39061 64.3594
CA -32.2373 -12.0181 69.9467
CA -40.176 -2.68407 53.35
CA -23.8219 -14.6783 73.4633
CA -25.2245 -36.8692 16.49
CA -19.2324 -25.1247 15.2344
CA -43.2958 -13.636 80.2841
CA -24.3951 -22.0737 46.1139
CA -14.0824 -7.66346 57.0344
CA -22.0547 -12.118 38.324
CA -4.09399 -24.8305 36.703
CA -8.57737 -5.7725 48.8862
CA -23.8972 -25.793 52.2011
CA -30.0906 -4.41323 69.0017
CA -27.6161 -23.843 53.5691
CA 3.88008 -14.323 40.9461
CA -21.0188 -34.591 15.1635
CA -12.132 -7.84723 12.7146
CA -5.59701 -15.0815 59.5629
CA -19.676 -14.1828 59.0511
CA -8.04335 -22.2778 58.1124
CA -7.41789 -3.44546 2.68299
CA -4.08865 -12.847 46.0261
CA -4.28213 -4.49299 13.2638
CA -34.0364 0.168355 64.7812
CA -27.7266 3.76304 78.2048
CA -3.31331 4.25231 1.52442
CA -35.3398 -5.93988 52.8754
CA -4.54896 -0.522746 58.2383
CA -15.0213 -7.00253 14.7717
CA -22.9369 7.66399 60.2962
CA 1.1928 -16.0668 45.488
CA -5.66632 -21.2923 35.2796
CA -7.68064 -5.36146 39
CA -27.7369 -35.5013 65.5665
CA -16.9717 -5.26521 12.4019
CA -23.3999 -1.82605 43.5003
CA -1.03235 -25.5066 49.787
CA -25.9677 2.01026 73.9098
CA -8.41486 -8.58268 37.7507
CA -41.7711 -13.1772 77.7898
CA -19.6616 -3.72349 84.8856
CA -23.272 -7.98328 47.1425
CA -9.20675 -25.5483 58.3028
CA -34.413 -20.8167 65.8075
CA -18.699 -18.3913 86.4179
CA -18.0968 -40.9475 63.3522
CA -20.2166 -9.26604 62.1476
CA -24.2088 -38.2424 64.2351
CA -10.1188 -19.256 79.393
CA -13.6517 5.04028 15.8747
CA -1.38241 -14.4689 50.551
CA -27.9048 -18.9405 61.0728
CA -20.0853 -31.4176 58.4278
CA -13.4666 -14.5869 34.198
CA -20.1762 -24.9297 32.0421
CA -33.4694 -18.5445 54.8899
CA -18.5046 -27.9409 28.7836
CA -23.7281 -11.853 35.2082
CA -15.7394 3.09231 17.8421
CA -11.5293 -27.8847 64.9434
CA -1.1938 -20.9933 57.2074
CA -8.11283 -25.7164 53.8728
CA -6.79199 -2.38963 9.86184
CA -24.2911 -2.33228 67.591
CA -29.7673 -38.1515 54.1709
CA -0.239659 -4.58851 60.0037
CA -12.0643 -19.0647 77.1988
CA -17.4759 -28.916 90.3138
CA -44.789 -13.1159 64.7787
CA -9.76389 -17.1063 78.417
CA 5.16015 -18.9884 70.5818
CA -12.428 -23.9326 15.3709
CA -26.4045 -38.3629 48.6999
CA -5.5843 -28.2954 41.805
CA -20.5771 -25.9417 48.1012
CA -14.3404 -10.712 77.0953
CA -31.9997 -15.1417 68.1822
CA -16.4274 -21.8813 76.3658
CA -13.4879 -23.0811 86.5828
CA 1.52169 -30.2538 37.8677
CA -43.1553 -11.7998 73.8652
CA -21.9024 -27.1043 86.8469
CA -19.1018 -24.9987 68.5487
CA -27.9949 -9.62888 47.3479
CA -13.2569 -0.020646 53.4663
CA -37.2453 -12.8578 57.919
CA -20.9391 -27.3154 53.7855
CA -7.03716 -12.02 69.5722
CA -27.6644 -8.50852 56.5596
CA -7.24165 -16.7611 51.6396
CA -34.2827 -9.8668 64.6319
CA -21.795 -26.158 17.1026
CA -22.2689 -30.4824 70.7656
CA -6.03136 -26.5065 65.4899
CA -16.1372 -29.2253 20.3694
CA -5.41724 -12.539 59.3214
CA -6.47741 1.69078 7.445
CA -11.9348 -21.9617 52.4033
CA -25.5726 -12.6049 46.1724
CA -16.6446 -9.17659 16.0286
CA -11.9978 -30.8864 17.962
CA -16.8969 -0.965446 42.6957
CA -9.15463 -21.1861 59.1962
CA -6.86439 -2.58166 17.1208
CA -39.6839 -4.3924 53.7806
CA -28.5186 -33.165 66.8016
CA -17.7008 -7.02649 43.7391
CA -0.881857 -22.9357 50.0357
CA -21.4015 -19.4129 88.0333
CA -37.8887 2.11197 57.9903
CA -19.6475 -11.4729 73.6296
CA -17.5054 -15.9418 53.5199
CA -9.74996 5.29218 41.823
CA -20.2961 -12.866 79.1116
