489

CA -29.1775 -7.38125 55.181
CA -16.196 -19.8818 73.1631
CA -5.90203 -4.66071 -0.367527
CA -42.9789 -5.53329 55.888
CA 0.223032 -6.45983 60.208
CA -10.0032 -35.8504 15.1898
CA -8.75709 -30.2283 67.4747
CA -47.5833 -19.4798 70.9716
CA -6.05625 -24.9074 52.3679
CA -15.5839 -16.2143 23.3098
CA -8.4551 -17.764 48.118
CA -32.261 -13.877 73.1509
CA -44.0018 -16.7704 71.6831
CA -13.8543 -23.0251 37.0065
CA -26.0148 -16.0642 67.2033
CA -7.54022 -28.3278 48.4905
CA -9.71169 -4.48436 16.9224
CA -14.8889 1.39663 58.5592
CA -5.41616 -6.70672 -0.594908
CA -30.4182 -33.867 64.4816
CA -39.0322 -12.9409 65.2414
CA -18.2634 -15.736 68.5308
CA -39.5802 -14.5131 58.3461
CA -30.1916 -18.9297 77.1195
CA -9.91467 -4.33484 53.4383
CA -37.4169 -15.9131 83.2785
CA -6.74336 -2.50543 50.7762
CA -18.3866 -28.1261 66.3083
CA -4.80397 -12.0715 37.7143
CA -34.5007 -22.0805 56.6421
CA -24.6442 -2.08107 70.014
CA -37.3952 -28.9046 50.1721
CA -37.9933 3.22231 59.2135
CA -3.33668 -8.79948 51.1739
CA -15.498 -18.5294 17.8113
CA 1.48364 -16.9013 47.4305
CA -14.7482 -23.249 76.426
CA -15.5384 -24.045 27.777
CA -33.9611 -26.043 52.8543
CA -8.3993 -2.82319 48.709
CA -25.6164 -19.6048 85.8873
CA -43.8311 -17.1892 65.1578
CA -20.758 -24.1562 16.4903
CA -25.1278 -32.8518 59.7671
CA -34.3555 -1.8115 61.4158
CA -23.023 -38.3733 55.9863
CA -21.3977 -31.5489 60.2464
CA -3.13398 -11.0851 -0.44299
CA -22.6346 -7.14689 54.4347
CA -24.9107 -8.87275 58.5263
CA -13.0501 1.95259 18.9658
CA -27.3982 6.73653 59.1596
CA -15.4926 -11.8446 58.921
CA -43.7444 -8.46958 59.111
CA -21.3937 -26.1185 64.7784
CA -38.8538 -11.7963 61.7562
CA -1.65964 -29.448 63.1317
CA -24.8393 -7.32139 52.2241
CA -29.5436 5.39952 61.9841
CA -8.08217 -23.2224 63.2436
CA -20.9692 -17.3585 62.0995
CA -46.5057 -21.8623 72.4166
CA -36.9042 -1.70139 66.4284
CA -20.8587 -15.2356 83.059
CA -24.4238 -38.4719 59.7506
CA -31.8315 -16.0574 48.1315
CA -13.6708 -26.5962 68.9382
CA -7.04638 -28.0419 54.832
CA -25.8794 -34.1205 68.4931
CA -15.6161 -9.62532 47.4466
CA -28.4914 -8.77436 60.5178
CA -25.2328 -10.4056 46.2992
CA -2.41631 -16.1102 58.7594
CA -33.6398 1.4289 58.6922
CA -40.5499 -18.874 75.9291
CA -16.7765 -8.66505 59.8914
CA -16.475 -25.2583 18.2216
CA -18.8142 -10.9454 78.4322
CA -6.12466 -23.8282 49.9005
CA -16.744 -23.6307 43.4146
CA -17.7842 -13.1294 20.2229
CA -39.3555 -7.44483 57.7782
CA -46.8424 -18.3422 72.8437
CA -10.0239 -14.9671 47.2863
CA -9.56909 -4.70307 12.7207
CA -42.0246 -14.8251 65.7487
CA -13.4885 -12.603 52.0677
CA -34.3276 -15.1739 73.1579
CA -31.6392 -11.8913 49.4601
CA -20.3597 -33.6664 80.1929
CA -25.2413 -13.6646 71.2636
CA -31.8969 -2.2409 66.5134
CA -0.485888 -9.55181 38.3182
CA 1.06815 -7.8507 57.3077
CA -17.8858 -24.4836 76.2383
CA -21.1895 -35.9823 79.4233
CA 7.48046 -16.001 39.9551
CA -19.517 -10.0606 80.1239
CA -39.8546 -31.6088 45.0612
CA -23.4198 -2.02109 87.5298
CA -25.692 -3.4616 60.5414
CA -13.6666 -9.00994 55.5609
CA -19.5907 -23.8995 41.5903
CA -33.2312 -15.3839 57.0898
CA -15.3905 -2.89924 49.2314
CA -7.40326 -9.6128 35.6411
CA 0.690416 -5.16155 62.1662
CA -18.3275 -23.8553 16.218
CA -13.4852 -24.8772 82.0211
CA -24.3949 -34.6594 55.3051
CA -29.4427 -1.21634 56.4778
CA -5.66709 -11.1263 1.96849
CA -22.3602 -23.7058 81.5872
CA -15.2942 -30.4961 19.0014
CA -11.7516 -18.8341 20.9225
CA -9.74496 -8.73282 65.2625
CA -34.8922 -30.1797 46.638
CA -17.8922 -19.8371 60.2743
CA -4.12582 -5.65949 1.01288
CA -12.8345 -1.52702 43.5525
CA -14.8286 -26.1947 82.8106
CA -7.2101 -37.8903 16.6783
CA -6.74484 -24.5039 37.4139
CA -23.4193 -19.3711 74.9601
CA -11.7567 -3.65678 16.7029
CA -19.9435 -11.6163 58.6162
CA -23.9899 1.18633 65.9617
CA -13.5962 -1.37131 56.0168
CA -14.4188 -27.6512 21.9056
CA -17.9165 -16.8438 34.994
CA -10.9695 -17.2936 49.3607
CA -1.1087 -26.2639 64.7083
CA -16.0124 -2.41513 46.9148
CA -10.8993 -29.2248 62.6851
CA -2.48397 -23.9272 64.2952
CA -4.61154 -12.4232 70.1223
CA -8.30723 -4.23942 35.1512
CA -8.71969 -21.5667 52.5154
CA -8.84267 -18.3834 65.6673
CA -17.1883 -1.59197 58.6355
CA -41.7444 -10.2763 73.7962
CA -25.4185 -12.2256 22.8141
CA -31.9778 -19.7252 53.8554
CA -19.6258 4.04439 56.9286
CA -27.4781 -25.6736 63.3837
CA -38.9987 -30.38 48.4256
CA -1.56986 -22.7057 56.391
CA 0.293284 -23.1827 65.6853
CA -41.3058 -5.55044 56.8567
CA -6.50546 -21.9313 69.741
CA -13.0239 -7.1378 22.6045
CA -16.0235 -29.461 68.121
CA -23.6166 -5.66355 37.758
CA -12.8536 -17.94 12.4865
CA -17.3648 -18.6356 18.9649
CA -23.1782 -8.77784 23.9355
CA -10.4498 -31.7481 50.1305
CA -24.8365 -26.1374 78.4859
CA -21.4299 -28.2586 43.533
CA -8.86121 -34.7707 16.846
CA -7.20924 -3.88791 56.2235
CA -4.81712 -27.1144 60.2531
CA -40.4576 -5.25739 49.4464
CA -10.0055 -26.1433 42.8899
CA -16.8582 -4.97238 35.6753
CA -12.3499 -16.7183 64.6004
CA -10.7118 -20.0869 15.9024
CA -14.301 -24.3329 32.5171
CA -18.5886 -14.5967 81.8662
CA -13.8229 -16.6758 9.84882
CA -37.6629 -20.3181 55.8768
CA -10.3324 -11.3947 64.3233
CA -13.3171 -19.3447 53.4572
CA -21.1878 -15.5159 36.7416
CA -15.0427 -36.232 63.597
CA -13.5309 -17.8686 28.0913
CA -21.0267 -13.3618 87.9413
CA -1.73492 -11.9209 53.7426
CA -8.53162 -19.0244 17.0608
CA -31.7603 -9.16361 71.0467
CA -15.1681 -27.7862 61.8483
CA -30.6618 -21.9383 62.6523
CA -8.04369 -7.95829 71.3335
CA -37.0284 -27.9892 53.8604
CA -9.70667 -17.241 79.0292
CA -18.8783 -38.0922 68.0381
CA -3.75956 -9.48258 48.809
CA -23.4273 -13.3424 88.662
CA -6.13583 0.502613 -0.295162
CA -11.0909 -25.9298 16.9364
CA -23.6855 -8.75904 56.5671
CA -18.4909 -25.547 32.2275
CA -30.5175 -9.5461 48.0775
CA -13.3456 -23.0431 16.9248
CA -8.66992 -24.0545 55.135
CA -17.1539 -12.7676 16.615
CA -36.0913 -23.803 53.4259
CA -2.01529 -23.6505 66.6039
CA 4.27637 -20.376 70.5125
CA -17.8076 -8.47363 49.6167
CA -28.4466 -17.8997 83.8831
CA -22.6562 0.542164 73.1926
CA -16.2327 -18.8121 36.7717
CA -35.4058 -14.0189 53.8537
CA -33.0797 -19.5983 60.4259
CA -24.6482 -30.4662 16.2742
CA -13.1771 -14.9957 79.2425
CA -35.8982 -11.8597 43.2008
CA -20.6989 -13.7662 75.3419
CA -16.4033 -36.779 67.0717
CA -2.91439 -16.1848 44.8958
CA -22.4062 -18.1734 89.8158
CA -10.4155 -14.4101 64.9537
CA -22.0627 -30.5879 76.822
CA -26.9928 -0.141495 71.2702
CA -39.2308 -9.214 41.3334
CA -8.57283 -14.9201 60.9205
CA 2.7182 -18.808 50.2921
CA -5.35057 -15.1714 55.3862
CA -34.5329 -10.3278 62.422
CA -30.5318 -13.3817 76.0455
CA -20.0755 -25.2851 11.7224
CA -11.837 -36.4235 58.2429
CA -15.4894 -31.041 56.8027
CA -22.516 -26.2979 74.8384
CA -19.3145 -7.03056 51.0473
CA -3.36956 -24.5979 54.6962
CA -20.8454 -28.1577 67.0197
CA -27.912 -20.0117 86.042
CA -13.8075 -32.4805 66.4836
CA -24.5427 3.2528 54.0909
CA -42.0966 -5.01423 58.8537
CA -7.51709 -8.52837 72.9918
CA -24.0762 -2.24379 53.4536
CA -24.1516 -28.0493 86.1263
CA -33.496 -17.5295 43.1581
CA -3.29161 -7.21706 65.0422
CA -9.38931 -13.9362 14.7055
CA -14.8825 -35.5604 66.7752
CA -20.5723 -21.7874 71.157
CA -0.56695 -9.74185 68.3428
CA -22.4499 1.48849 60.2354
CA -15.5318 -25.7278 40.3742
CA -10.2666 -18.0774 62.5249
CA -28.8216 -8.34364 32.507
CA -15.9186 -24.107 21.2078
CA -33.2713 -18.4398 69.6946
CA -38.2146 -14.3156 81.9817
CA -26.6857 -24.4763 66.0695
CA -11.5757 -38.3109 67.1915
CA -28.7519 0.158491 70.6937
CA -30.6736 2.26002 58.5392
CA -10.4 -12.4538 78.6235
CA -32.9957 -10.0978 41.1586
CA -10.5338 -24.733 59.7647
CA -11.9492 1.12612 50.0527
CA -23.4896 -26.4029 53.1247
CA -1.6814 -5.87636 61.4784
CA -39.0555 -12.84 51.9135
CA -35.2633 -11.2202 46.3476
CA -18.3526 -12.2928 14.0793
CA -34.6241 -29.6858 53.2794
CA -22.9498 -39.0998 78.232
CA -29.2086 -15.3742 77.4591
CA -19.6191 -21.1507 43.5048
CA -13.5795 -12.87 78.0814
CA -8.9127 -24.2347 51.1566
CA -34.73 5.35349 63.8449
CA -24.0901 0.276509 58.0279
CA -15.3392 -18.2748 73.9665
CA -20.7182 -8.88439 17.4202
CA -24.4849 -38.7505 53.8226
CA -10.0308 -20.2628 61.0323
CA -5.98304 -15.2759 72.9967
CA -4.29068 -9.2687 37.3978
CA -11.2876 -6.29333 20.0405
CA -10.2279 -28.4506 61.1037
CA -16.5965 -2.64527 44.0255
CA -18.1228 -11.2998 59.7731
CA -37.7632 -22.0391 51.5837
CA -23.9416 -27.0167 62.0536
CA -38.3884 -14.8927 78.8421
CA -42.0246 -6.82269 60.0503
CA -7.07494 -1.17912 15.272
CA -11.4588 4.90854 40.4391
CA -17.8931 -27.8045 89.8236
CA -10.4184 -27.3394 15.7287
CA -21.8589 -32.2689 81.3318
CA -22.0658 -15.4462 66.2269
CA -37.9731 -17.8212 74.9327
CA -29.7401 -36.2926 63.139
CA -9.86742 -27.8294 48.5329
CA -39.8335 -6.41795 73.5729
CA -22.0629 -22.16 83.9565
CA -20.9006 -12.9534 66.6897
CA -27.5354 -16.8406 72.2429
CA -8.96831 -29.4327 46.9268
CA -15.4066 -20.2283 33.608
CA -25.2486 -38.2764 55.5936
CA -3.08666 -10.7243 39.1201
CA -40.0385 -11.7531 44.3235
CA -20.7179 -36.7779 17.2277
CA -8.52962 -17.1498 44.033
CA -19.4756 -33.0215 16.9986
CA -18.6342 -16.5404 51.168
CA -28.307 -25.9174 54.4538
CA -20.0264 -29.9924 16.0805
CA -18.5296 -20.4632 73.6738
CA -38.7301 -11.4218 55.9882
CA -14.9366 -25.7718 72.6768
CA -18.4694 -11.3442 16.6275
CA -23.89 -16.0097 71.6819
CA -14.357 -20.933 51.2094
CA -6.20962 -19.9857 60.2874
CA -29.06 -10.485 50.3635
CA -36.799 -26.6184 46.5165
CA -24.31 -4.03336 63.707
CA -33.7016 -16.7506 69.121
CA -11.8013 1.09619 63.2142
CA -32.4952 -19.7808 84.8913
CA -40.4747 -11.3051 57.0726
CA -25.906 0.287387 65.0304
CA -1.33938 3.71885 1.62726
CA -20.1624 -25.3112 45.3132
CA -24.6397 -27.8292 84.0206
CA -17.4343 -5.50418 43.7696
CA -20.6024 -21.4476 14.1266
CA -17.3606 -40.9422 65.8562
CA -37.2989 -14.3961 85.1137
CA -10.9544 -0.00433172 42.8117
CA -18.4208 -8.66575 63.2219
CA -10.1421 -7.3739 3.66705
CA -27.3565 -20.5883 59.4025
CA -11.267 -17.8469 67.4785
CA -21.2481 -28.4923 63.1741
CA -18.0361 -8.67044 85.9569
CA -24.3066 -9.84608 44.73
CA -27.1764 -25.4964 55.9195
CA -47.8516 -4.24192 59.485
CA -26.9385 -18.7259 47.6984
CA -13.7992 -0.51448 18.7687
CA -24.4044 -15.8524 89.7355
CA -5.81577 -13.1699 50.297
CA -21.8758 -22.9125 29.5335
CA -16.1753 -17.7794 31.8998
CA -26.7925 -9.43903 32.4271
CA -21.7231 -38.6585 53.2261
CA -23.0322 -1.52574 70.7478
CA -20.2253 -12.9967 52.8795
CA -30.1294 -20.9289 45.7995
CA -20.3105 -11.1072 83.9296
CA -45.624 -17.4529 79.0916
CA -39.6713 -11.7264 59.9757
CA -22.6569 -32.533 67.5177
CA -30.7888 -18.4019 57.327
CA -8.90148 -12.9147 47.9641
CA -22.6905 -38.011 51.7885
CA -1.01118 -6.7354 58.9211
CA -15.3205 0.50287 53.5548
CA -16.7746 -9.1027 19.5258
CA -22.2615 -23.1984 54.041
CA -11.9055 -7.77223 55.3076
CA -25.8681 -40.1747 67.8443
CA -22.5015 -10.5919 36.359
CA -9.69156 -3.84732 38.3565
CA -44.9316 -13.2497 70.0956
CA -27.7333 -13.3726 67.1761
CA -44.5691 -15.8607 74.3977
CA -12.2304 -4.28285 35.6125
CA -29.1066 0.735951 56.8434
CA -21.3727 -34.9731 56.3814
CA -31.4229 -8.26882 61.6525
CA -25.7447 -19.5045 70.3644
CA -20.8184 -8.20159 24.2189
CA -9.86519 -1.14868 54.1656
CA -13.1679 -27.3786 87.3643
CA -14.8811 -7.60216 60.2211
CA -13.5473 -19.674 33.1343
CA -25.2245 -36.8692 16.49
CA -19.2324 -25.1247 15.2344
CA -46.3112 -17.4275 69.9452
CA -20.4092 -5.81931 53.2827
CA -20.0554 -8.47966 37.1389
CA -18.3748 -33.3209 47.1492
CA -22.5522 -13.5853 56.3043
CA -11.8977 -17.5182 43.8393
CA -36.0134 -7.8746 43.3128
CA -0.939591 -9.86227 48.3805
CA -30.8031 -4.94592 53.3373
CA 3.88008 -14.323 40.9461
CA -21.0188 -34.591 15.1635
CA -36.5597 1.24048 59.5679
CA -16.3915 -9.51942 34.1272
CA -4.35828 -1.03102 1.8032
CA -13.8698 -23.4924 45.6869
CA -17.7709 -22.0431 56.9976
CA -4.82093 -8.41502 38.9799
CA -4.28213 -4.49299 13.2638
CA -17.4734 -25.6255 43.413
CA -21.8133 -24.5394 79.1816
CA -3.24102 0.904847 6.53472
CA -35.3398 -5.93988 52.8754
CA -7.85984 -20.7587 49.1524
CA -15.0213 -7.00253 14.7717
CA -36.8113 -8.47088 57.7135
CA 1.1928 -16.0668 45.488
CA -5.66632 -21.2923 35.2796
CA -8.05251 -18.9477 39.509
CA -27.7369 -35.5013 65.5665
CA -2.71798 -9.27037 68.3157
CA -38.7899 -15.2838 60.7921
CA -33.3421 -3.11868 48.0764
CA -41.8141 -15.8689 61.7137
CA -8.41486 -8.58268 37.7507
CA -10.1527 -9.49476 59.0697
CA -19.6616 -3.72349 84.8856
CA -32.2755 -13.8845 70.7437
CA -10.4768 -1.60955 38.1843
CA -23.1158 -24.6273 58.6082
CA -26.2548 -25.4739 58.3452
CA -3.7314 -14.0313 46.2779
CA -10.2167 -5.50738 36.7031
CA -20.7052 -35.2832 59.8549
CA -33.1887 -21.2453 59.1986
CA -13.6517 5.04028 15.8747
CA -1.38241 -14.4689 50.551
CA -30.9467 -18.9358 48.7738
CA -41.8144 -20.5163 74.8466
CA -13.4666 -14.5869 34.198
CA -22.9461 -28.5918 53.8161
CA -5.64789 -4.80684 61.5199
CA -24.6606 -8.14791 37.6875
CA -23.7281 -11.853 35.2082
CA -36.265 -13.1842 41.912
CA -34.1438 -18.9989 58.3347
CA -37.5237 -4.69691 48.0304
CA -20.6849 -27.5354 31.3545
CA -6.79199 -2.38963 9.86184
CA -20.8066 -17.0565 38.4617
CA -12.9043 -3.77208 44.1925
CA -0.239659 -4.58851 60.0037
CA -25.164 -14.6967 64.7369
CA -22.692 -21.9216 81.1424
CA -28.2582 -22.054 60.4024
CA -18.0916 -9.62349 21.7583
CA -23.7669 -34.6857 46.2884
CA -12.428 -23.9326 15.3709
CA -38.5684 -32.8886 51.4246
CA -24.1849 -36.0479 69.8067
CA -20.7786 -15.3042 55.8167
CA -36.3116 -9.70193 54.3182
CA -3.16476 -28.3122 45.2313
CA -31.0442 -17.0568 54.3721
CA -21.1528 -14.9399 80.0184
CA -9.36328 -0.970231 11.9627
CA -47.813 -6.81086 57.9055
CA -21.9024 -27.1043 86.8469
CA -18.6676 -25.4353 38.1863
CA -20.8939 -7.29619 33.637
CA -30.5973 -18.6252 69.4196
CA -19.9848 -24.1232 85.8199
CA -47.728 -14.8068 63.6908
CA -28.9092 0.242143 60.6875
CA -7.332 -8.4437 0.000181908
CA -2.07479 -26.5872 46.9251
CA -34.2827 -9.8668 64.6319
CA -12.1728 -19.5027 56.3803
CA -22.2689 -30.4824 70.7656
CA -29.7693 -21.3371 50.1037
CA -16.1372 -29.2253 20.3694
CA -14.8857 -32.3653 50.0996
CA -6.47741 1.69078 7.445
CA -3.56813 -22.791 60.3788
CA -21.8015 -28.3209 76.2183
CA 0.296018 -19.1063 67.6468
CA -11.9978 -30.8864 17.962
CA -43.1823 -13.8127 60.5027
CA -17.5557 -35.0039 68.4493
CA -6.86439 -2.58166 17.1208
CA -4.75732 -18.7909 51.2402
CA -15.6186 -33.739 58.4641
CA -13.6497 -6.02742 37.3284
CA -17.5029 -22.278 38.9086
CA -21.9708 -32.9581 72.9135
CA -9.81954 -16.0669 33.8269
CA -14.8404 -24.8338 19.3347
CA -18.5286 -30.1443 52.8924
CA -24.6972 -23.7382 85.0215
CA -50.0461 -5.55925 56.1946
