489

CA -5.43445 -10.9372 40.6486
CA -36.5639 -15.6019 38.5857
CA -5.90203 -4.66071 -0.367527
CA -42.9789 -5.53329 55.888
CA 0.223032 -6.45983 60.208
CA -19.025 -18.0395 75.3199
CA -8.75709 -30.2283 67.4747
CA -9.65024 -21.4792 68.6584
CA -8.28144 -1.81957 52.1011
CA -15.5839 -16.2143 23.3098
CA -10.0088 -5.63733 27.4065
CA -11.5404 -36.6432 64.1862
CA -44.0018 -16.7704 71.6831
CA -15.9613 -13.298 54.6867
CA -31.1804 -18.7808 74.3131
CA -7.29612 -3.90773 24.4282
CA -9.71169 -4.48436 16.9224
CA -14.8889 1.39663 58.5592
CA -5.41616 -6.70672 -0.594908
CA -30.4182 -33.867 64.4816
CA -39.0322 -12.9409 65.2414
CA -15.6973 -12.749 20.4337
CA -39.5802 -14.5131 58.3461
CA -27.8512 -15.3303 58.1636
CA -6.10168 -24.6927 69.2177
CA -25.5612 -16.8101 68.7516
CA -6.74336 -2.50543 50.7762
CA -18.3866 -28.1261 66.3083
CA -25.6743 -25.7861 56.3571
CA -18.9042 -41.6615 63.6828
CA -24.6442 -2.08107 70.014
CA -34.6103 -12.6387 61.8349
CA -10.2745 3.00442 5.18115
CA -3.33668 -8.79948 51.1739
CA -15.498 -18.5294 17.8113
CA -18.6397 -23.2537 45.5158
CA -46.9748 -10.9889 64.2181
CA -39.7129 -9.50409 54.8229
CA -33.9611 -26.043 52.8543
CA -23.5048 -34.3942 60.325
CA -14.945 -15.2968 69.825
CA -16.427 -10.6979 21.3448
CA -13.0902 -29.3419 68.3012
CA -4.03904 -24.3624 62.9618
CA -12.5017 -23.1512 58.58
CA -30.042 -14.9768 58.7034
CA -21.3977 -31.5489 60.2464
CA -9.35395 -32.251 64.653
CA -22.4754 -27.1836 74.8517
CA -18.3538 0.565414 51.4903
CA -13.0501 1.95259 18.9658
CA -30.394 -34.9253 68.6421
CA -30.4368 -12.4606 60.9513
CA -18.1166 -37.8908 65.8438
CA -18.4343 0.137232 56.1421
CA -38.8538 -11.7963 61.7562
CA -9.09956 -5.8987 19.4332
CA -24.8393 -7.32139 52.2241
CA -17.9932 -16.7493 36.9059
CA -37.4695 -14.1651 56.1298
CA -20.9692 -17.3585 62.0995
CA -22.4499 -35.9942 51.7395
CA -30.832 -35.9253 65.5778
CA -20.8587 -15.2356 83.059
CA -14.8394 -23.0443 59.9451
CA -17.2962 -29.4406 77.7499
CA -12.0051 -30.7102 47.5925
CA -10.9629 -15.2937 21.4717
CA -25.8794 -34.1205 68.4931
CA -15.6161 -9.62532 47.4466
CA -28.4914 -8.77436 60.5178
CA -34.7837 -1.51257 58.1635
CA -2.41631 -16.1102 58.7594
CA -30.6878 0.998824 59.7191
CA -40.5499 -18.874 75.9291
CA -16.7765 -8.66505 59.8914
CA -16.475 -25.2583 18.2216
CA -18.8142 -10.9454 78.4322
CA -25.2355 -34.23 70.6899
CA -12.9879 -27.9644 56.4992
CA -27.7385 -8.94737 56.1932
CA -48.0908 -6.84298 60.7421
CA -27.3997 -10.7828 50.4371
CA -10.0239 -14.9671 47.2863
CA -9.56909 -4.70307 12.7207
CA -17.7243 -25.1495 45.8441
CA -13.4885 -12.603 52.0677
CA -19.3755 -26.0921 80.5297
CA -26.4521 -38.3335 63.8479
CA -20.3597 -33.6664 80.1929
CA -36.0606 -13.6106 65.0732
CA -35.6268 -13.9541 74.2163
CA -13.1017 -9.10851 34.5673
CA 1.06815 -7.8507 57.3077
CA 0.0836785 -27.8611 46.7108
CA -15.4828 -27.6435 89.8095
CA 7.48046 -16.001 39.9551
CA -17.1423 -5.08509 43.553
CA -32.9048 -32.4768 46.6218
CA -23.4198 -2.02109 87.5298
CA -12.3226 -0.531343 51.6137
CA -11.9129 -33.7423 52.6771
CA -7.47499 -31.282 41.8909
CA -33.2312 -15.3839 57.0898
CA -36.5348 -25.0253 47.9086
CA -38.194 -5.39698 59.3803
CA -35.1233 -1.9462 64.6387
CA -18.3275 -23.8553 16.218
CA -13.4852 -24.8772 82.0211
CA -24.3949 -34.6594 55.3051
CA -29.4427 -1.21634 56.4778
CA -2.4968 -14.0628 59.4885
CA -25.5314 3.36808 59.4756
CA -15.2942 -30.4961 19.0014
CA -11.7516 -18.8341 20.9225
CA -45.8605 -22.0268 70.0844
CA -20.3172 -39.7206 53.5992
CA -17.8922 -19.8371 60.2743
CA -4.12582 -5.65949 1.01288
CA -8.71432 -15.6608 45.3973
CA -14.8286 -26.1947 82.8106
CA -7.2101 -37.8903 16.6783
CA 0.876948 -6.0482 51.2506
CA -37.309 1.73731 59.9191
CA -11.7567 -3.65678 16.7029
CA -38.9731 -25.7972 71.8204
CA -11.5423 -25.2978 56.9666
CA -9.24181 -9.18956 7.90799
CA -11.6585 -4.63293 27.1667
CA -37.1073 -16.6233 76.6169
CA -11.6098 -6.30476 31.711
CA -1.1087 -26.2639 64.7083
CA -16.6049 -38.9368 64.833
CA -27.28 -35.6479 75.2014
CA -2.48397 -23.9272 64.2952
CA -4.61154 -12.4232 70.1223
CA -8.30723 -4.23942 35.1512
CA -29.8617 -20.1577 58.1848
CA -8.84267 -18.3834 65.6673
CA -14.2382 -14.9962 28.2301
CA -41.7444 -10.2763 73.7962
CA -13.8621 -2.29981 49.0011
CA -24.9129 -27.4234 59.0533
CA -27.9055 -18.0971 85.869
CA -27.4781 -25.6736 63.3837
CA -38.9987 -30.38 48.4256
CA -1.56986 -22.7057 56.391
CA -37.0816 -6.32081 50.576
CA -39.5983 -26.1053 44.4363
CA -17.7465 -22.8613 33.1003
CA -13.0239 -7.1378 22.6045
CA -7.78113 -6.0669 28.9122
CA -23.6166 -5.66355 37.758
CA -12.8536 -17.94 12.4865
CA -17.3648 -18.6356 18.9649
CA -7.88449 -2.37392 6.57035
CA -23.3004 3.00317 59.6247
CA -26.2069 -42.8295 63.2875
CA -12.3399 -12.3168 75.1515
CA -8.86121 -34.7707 16.846
CA -7.20924 -3.88791 56.2235
CA -4.81712 -27.1144 60.2531
CA -14.2624 -25.2661 80.1412
CA 1.42438 -8.87804 60.955
CA -31.8337 -6.73856 69.0365
CA -20.3511 -19.2885 49.6535
CA -10.7118 -20.0869 15.9024
CA -14.4864 -12.0739 40.7491
CA -18.5886 -14.5967 81.8662
CA -13.8229 -16.6758 9.84882
CA -21.6258 -26.7229 60.3993
CA -10.3324 -11.3947 64.3233
CA -39.3338 -22.2857 74.3035
CA -35.934 0.27372 61.7236
CA -23.3048 -18.3054 89.5974
CA -13.5309 -17.8686 28.0913
CA -17.5723 -21.8764 75.6203
CA -16.5898 -26.7693 20.0155
CA -8.53162 -19.0244 17.0608
CA -31.7603 -9.16361 71.0467
CA -15.1681 -27.7862 61.8483
CA -24.2307 -14.9854 35.4188
CA -4.61781 -30.6686 53.598
CA -37.0284 -27.9892 53.8604
CA -8.47224 -21.3511 42.797
CA -9.80614 -2.53089 30.7482
CA -11.976 -10.6983 56.3623
CA -17.9356 -17.0732 46.1655
CA -14.0743 -26.5318 26.3464
CA -11.0909 -25.9298 16.9364
CA -23.6855 -8.75904 56.5671
CA -18.4909 -25.547 32.2275
CA -20.6263 -4.21863 42.2178
CA -31.483 -13.2691 44.0608
CA -19.5558 1.08132 48.4957
CA -17.1539 -12.7676 16.615
CA -36.0913 -23.803 53.4259
CA -25.7631 -20.9182 86.6182
CA -20.5549 -23.9049 54.5593
CA -9.77875 -35.3117 65.4773
CA -11.5469 -3.43172 40.3368
CA -15.3352 -16.8013 25.1107
CA -16.2327 -18.8121 36.7717
CA -23.6783 -31.3232 45.5578
CA -17.7803 -23.7896 54.9944
CA -24.6482 -30.4662 16.2742
CA -38.6044 -9.61957 45.457
CA -18.7452 -27.575 78.998
CA -22.7331 -37.7553 69.3188
CA -13.7457 -15.449 49.1868
CA -2.91439 -16.1848 44.8958
CA -7.40818 -33.2579 64.4935
CA -13.9408 -27.0459 46.2368
CA -2.57526 -33.7426 43.3242
CA -11.845 -16.4081 41.9196
CA -1.99659 -7.32922 36.5149
CA -8.57283 -14.9201 60.9205
CA -8.9742 -28.3451 43.3046
CA -5.35057 -15.1714 55.3862
CA -34.5329 -10.3278 62.422
CA -21.3034 -18.0598 69.2388
CA -37.6373 -29.5775 50.8318
CA -13.9379 -7.36053 32.921
CA -15.4894 -31.041 56.8027
CA -12.3319 -5.40614 34.114
CA -19.3145 -7.03056 51.0473
CA -3.36956 -24.5979 54.6962
CA -8.99994 -34.825 49.6311
CA -19.995 -18.8023 36.2947
CA -13.8075 -32.4805 66.4836
CA -24.5427 3.2528 54.0909
CA -14.7617 -0.25582 43.277
CA -27.4148 -16.5689 75.4258
CA -40.6259 -29.3625 43.166
CA -26.2212 -12.4718 59.6347
CA -33.496 -17.5295 43.1581
CA -3.29161 -7.21706 65.0422
CA -23.9264 -0.436064 71.2646
CA -14.8825 -35.5604 66.7752
CA -4.35978 -28.7189 50.0669
CA -0.56695 -9.74185 68.3428
CA -10.269 -17.4495 15.9153
CA -15.5318 -25.7278 40.3742
CA -12.2361 -4.6767 20.45
CA 2.14585 -26.8227 66.6523
CA -26.8624 -21.0168 50.2792
CA -18.0712 2.26234 41.8702
CA -26.4954 3.62819 61.5322
CA -13.6231 -15.2132 55.3313
CA -11.5757 -38.3109 67.1915
CA -5.53439 -12.3839 52.4498
CA -16.1243 -25.4748 35.1646
CA 0.0197299 -19.0674 63.6567
CA -0.86609 -18.1659 43.6229
CA -10.5338 -24.733 59.7647
CA -11.9492 1.12612 50.0527
CA -38.5767 -29.8429 54.2671
CA -9.31551 -12.6399 79.4052
CA -7.25827 -39.6518 15.8611
CA -35.2633 -11.2202 46.3476
CA -28.5731 -0.883755 54.5473
CA -22.6758 -13.5963 79.099
CA -23.5636 -21.9592 68.3404
CA -26.1918 -8.69953 43.5258
CA -43.1641 -12.1761 43.0923
CA -13.5795 -12.87 78.0814
CA -8.9127 -24.2347 51.1566
CA -19.0883 -10.8167 52.0159
CA -30.843 -17.6515 59.8474
CA -15.3392 -18.2748 73.9665
CA -20.7182 -8.88439 17.4202
CA -39.0831 -17.0954 56.4352
CA -22.4803 -35.8514 65.6583
CA -5.98304 -15.2759 72.9967
CA -8.48944 -33.233 51.8127
CA -34.664 -19.3761 53.8028
CA -21.9323 -31.0251 73.5007
CA -25.2179 -5.32936 83.0632
CA -18.1228 -11.2998 59.7731
CA -11.2405 -18.9473 50.7925
CA -23.9416 -27.0167 62.0536
CA -38.3884 -14.8927 78.8421
CA -17.1214 -11.5932 23.2942
CA 0.735367 -7.23625 52.6891
CA -16.1646 -23.3202 23.1461
CA -17.8931 -27.8045 89.8236
CA -19.2837 -21.5758 35.9739
CA -34.2493 -17.9795 56.1737
CA -37.2824 -14.2346 76.732
CA -24.8784 -20.1691 81.2709
CA -6.06886 -30.2651 45.9948
CA -31.2913 -13.6363 47.4269
CA -20.4438 -33.4413 77.4817
CA -21.5857 -29.1869 43.2219
CA -20.9006 -12.9534 66.6897
CA -18.706 -4.53688 45.1859
CA -25.4464 -36.6558 54.5888
CA -23.3802 -12.5433 64.7333
CA -25.2486 -38.2764 55.5936
CA -18.563 -39.841 52.8536
CA -40.0385 -11.7531 44.3235
CA -6.62798 -9.93987 8.81875
CA -28.6736 -19.6869 78.7589
CA -19.4756 -33.0215 16.9986
CA -18.6342 -16.5404 51.168
CA -28.307 -25.9174 54.4538
CA -20.0264 -29.9924 16.0805
CA -18.5296 -20.4632 73.6738
CA -25.4507 -21.4505 67.3547
CA -50.7545 -13.5442 64.8325
CA -18.4694 -11.3442 16.6275
CA -41.8919 -11.6238 58.2361
CA -15.497 -5.85366 46.5935
CA -6.20962 -19.9857 60.2874
CA -17.2594 -30.2148 20.2497
CA -12.869 -20.8152 71.5877
CA -24.31 -4.03336 63.707
CA -33.7016 -16.7506 69.121
CA -6.13819 -6.60726 38.7483
CA -25.1991 -12.8204 82.7889
CA -10.5445 -17.7837 45.9101
CA 1.56733 1.62236 3.01592
CA -1.33938 3.71885 1.62726
CA -25.3739 -30.7062 71.0563
CA -14.8454 -32.9833 56.0935
CA -14.2583 -24.147 15.7456
CA -20.6024 -21.4476 14.1266
CA -0.921078 -26.7078 61.3215
CA -12.2852 -10.322 64.2216
CA -10.9544 -0.00433172 42.8117
CA -0.842855 -30.1341 66.7297
CA -10.1421 -7.3739 3.66705
CA -3.61499 -10.3564 60.6697
CA -21.7564 -25.6278 56.4933
CA -5.80596 -15.2425 61.5842
CA -18.0361 -8.67044 85.9569
CA -17.6439 -30.2965 80.7692
CA -34.4236 -31.2639 46.7226
CA -47.8516 -4.24192 59.485
CA -26.9385 -18.7259 47.6984
CA -13.7992 -0.51448 18.7687
CA -24.4044 -15.8524 89.7355
CA -22.3386 -5.0699 83.2222
CA -21.8758 -22.9125 29.5335
CA -4.20002 -3.56846 58.6666
CA -37.2572 -11.0431 62.9862
CA -22.8973 -16.1478 65.1606
CA -10.7094 -22.562 65.1051
CA -35.9138 -18.5762 60.5938
CA -27.9614 -10.3502 52.1653
CA -29.2118 -2.99462 66.8314
CA -45.624 -17.4529 79.0916
CA -29.9265 -17.2776 76.0309
CA -9.40148 -14.0205 44.0236
CA -21.0474 -34.6668 52.1791
CA -41.9554 -25.8706 54.3005
CA -22.6905 -38.011 51.7885
CA -32.8842 -21.8354 60.5939
CA -8.52118 -30.4732 47.0708
CA -16.7746 -9.1027 19.5258
CA -7.74966 -31.7055 50.1664
CA -21.6973 -10.0123 38.1838
CA -20.7081 -30.1615 44.7201
CA -8.34915 -10.9861 38.2944
CA -16.2866 -12.8275 82.1698
CA -44.9316 -13.2497 70.0956
CA -16.4993 -41.0776 68.4474
CA -44.5691 -15.8607 74.3977
CA -12.2304 -4.28285 35.6125
CA -29.1066 0.735951 56.8434
CA -21.3727 -34.9731 56.3814
CA -31.9771 -34.6805 67.5299
CA -2.04499 -22.372 63.018
CA -20.8184 -8.20159 24.2189
CA -9.86519 -1.14868 54.1656
CA -39.0921 -18.0469 81.9847
CA -14.8811 -7.60216 60.2211
CA -13.5473 -19.674 33.1343
CA -36.3287 -2.64106 62.9415
CA -20.5692 -9.5058 57.3271
CA -14.6695 -27.4601 34.7051
CA -17.1267 -26.6768 22.368
CA -17.2489 -18.012 74.8595
CA -18.3748 -33.3209 47.1492
CA -10.0987 -3.08456 5.71737
CA -11.8977 -17.5182 43.8393
CA -1.40731 -9.88843 70.1013
CA -16.9339 -23.7776 36.0996
CA -30.8031 -4.94592 53.3373
CA 3.88008 -14.323 40.9461
CA -18.4678 -33.6829 14.8657
CA -27.96 -8.02899 51.6144
CA -15.7046 -17.5742 28.0162
CA -4.35828 -1.03102 1.8032
CA -13.8698 -23.4924 45.6869
CA -37.4414 -13.3553 43.4162
CA -4.82093 -8.41502 38.9799
CA -6.14224 -6.76823 55.2593
CA -17.4734 -25.6255 43.413
CA -23.4181 -22.1869 59.8767
CA -21.1246 -16.751 84.5268
CA -35.3398 -5.93988 52.8754
CA -22.9344 -8.07241 47.8715
CA -15.0213 -7.00253 14.7717
CA -36.8113 -8.47088 57.7135
CA 1.1928 -16.0668 45.488
CA -5.71706 -8.81524 64.887
CA -22.0946 -18.5507 38.1517
CA -18.9445 -12.9757 82.9648
CA -22.8007 -21.3802 72.241
CA -25.6474 -39.76 60.0907
CA -17.1464 -19.6827 58.6152
CA -41.8141 -15.8689 61.7137
CA -5.21064 -31.9175 46.3942
CA -19.4423 -26.208 43.4199
CA -19.6616 -3.72349 84.8856
CA -32.2755 -13.8845 70.7437
CA -10.4768 -1.60955 38.1843
CA -10.6892 -13.0518 53.0513
CA -23.5796 -35.561 76.3849
CA -3.7314 -14.0313 46.2779
CA -23.076 -34.4914 48.1863
CA -33.6715 -11.0094 39.0481
CA -20.0785 -18.4299 87.9278
CA -13.6517 5.04028 15.8747
CA -1.38241 -14.4689 50.551
CA -30.9467 -18.9358 48.7738
CA -24.6219 -22.2061 83.5987
CA -34.7621 -14.4012 75.9945
CA -27.4468 -10.2914 45.7404
CA -5.64789 -4.80684 61.5199
CA -24.2872 -11.4198 59.0581
CA -23.7281 -11.853 35.2082
CA -36.265 -13.1842 41.912
CA -8.9201 -7.16261 54.2082
CA -37.5237 -4.69691 48.0304
CA -29.3881 -13.2788 68.9124
CA -6.79199 -2.38963 9.86184
CA -20.8066 -17.0565 38.4617
CA -28.5698 -16.8548 87.4646
CA -13.8514 -17.5774 31.4503
CA -24.8366 -36.0053 66.21
CA -11.6309 -15.4102 12.471
CA -16.1485 -2.46622 45.5255
CA -14.0235 -3.28441 39.1411
CA -31.8752 -0.426058 55.2858
CA -12.428 -23.9326 15.3709
CA -21.2055 -5.79685 59.1198
CA -24.333 -24.9803 64.2214
CA -8.73737 -34.8671 55.2618
CA -14.194 -2.65332 56.1963
CA -22.5156 -12.4819 80.6287
CA -31.0442 -17.0568 54.3721
CA -21.1528 -14.9399 80.0184
CA -21.6488 -31.842 57.109
CA -47.813 -6.81086 57.9055
CA -21.9024 -27.1043 86.8469
CA -18.6676 -25.4353 38.1863
CA -19.4725 -29.4131 38.8366
CA -22.2992 -35.2832 58.5192
CA -19.9848 -24.1232 85.8199
CA -47.728 -14.8068 63.6908
CA -16.3712 -1.56462 53.8292
CA -7.332 -8.4437 0.000181908
CA -2.07479 -26.5872 46.9251
CA -34.2827 -9.8668 64.6319
CA -12.1728 -19.5027 56.3803
CA -28.6017 -16.7819 61.2378
CA -43.6763 -15.104 65.7201
CA -36.6905 -17.3616 52.6135
CA -32.0774 -22.9295 62.3487
CA -43.5605 -12.3024 73.1758
CA -3.56813 -22.791 60.3788
CA -30.0507 -3.82953 54.6868
CA -43.8362 -17.5301 68.8134
CA -11.9978 -30.8864 17.962
CA -46.5991 -18.7015 67.8437
CA -24.4513 -34.194 72.4123
CA -6.86439 -2.58166 17.1208
CA -7.20758 2.04045 5.71598
CA -25.0744 -1.10558 60.857
CA -0.794161 -8.10397 61.2214
CA -5.71128 -15.4541 15.4658
CA -9.7084 -22.7971 53.4978
CA -9.81954 -16.0669 33.8269
CA -14.8404 -24.8338 19.3347
CA -18.5609 -30.976 54.1905
CA -24.6972 -23.7382 85.0215
CA -13.7957 -16.7778 74.2417
