489

CA -5.27113 6.83722 27.8312
CA -12.0491 -13.1419 23.3531
CA -12.1608 -12.665 25.6966
CA -19.111 11.6734 51.1899
CA -11.4437 -7.33394 49.6863
CA 6.99945 27.5219 44.2576
CA 11.9371 -26.1415 71.1178
CA 21.2888 -30.3685 39.2504
CA -14.4889 12.7588 51.7144
CA -1.15009 -3.08519 35.4403
CA 31.2205 21.2765 58.6322
CA -10.9352 -20.168 31.4928
CA 12.8167 14.0867 49.2041
CA -26.2111 -8.47909 62.1594
CA 1.45194 -29.2535 40.1144
CA -13.1403 -5.16071 17.4787
CA 10.4354 18.3024 60.7729
CA 0.162675 -13.2008 81.3658
CA 3.84567 -34.3658 39.3558
CA -28.2385 -12.7572 18.5121
CA -1.71653 -31.2285 44.1714
CA -0.873829 -32.0797 38.2395
CA -15.5112 -21.4089 19.5928
CA -0.705737 9.87083 68.6631
CA -15.8076 -11.5112 47.5798
CA -15.8723 -10.1125 51.5183
CA -17.9804 -10.9306 62.2322
CA -21.4468 -10.3529 66.2678
CA -0.381983 0.0668107 86.4477
CA -7.27724 -18.9175 46.3796
CA 27.0165 -10.3454 35.7435
CA 16.0148 17.1297 60.9035
CA 10.8115 -24.9299 65.9204
CA -14.4437 -16.3424 17.4073
CA -11.1181 18.9887 74.6196
CA -6.66179 -19.0008 33.0266
CA -4.827 -26.7383 29.0516
CA 9.57828 19.0509 43.2248
CA -8.64085 -28.9034 53.2932
CA 9.58767 16.562 52.9212
CA 0.445139 7.81828 65.7354
CA 4.38378 5.25815 23.7986
CA -5.44238 10.2616 20.9574
CA -8.29565 -6.04593 38.5409
CA -4.19598 0.588342 23.9966
CA -3.57462 -3.94681 25.6464
CA -10.0685 -18.4868 39.025
CA -2.68749 -4.24998 45.7107
CA -10.2682 -7.83549 53.9905
CA 1.60472 10.6966 77.4384
CA -18.7207 1.03193 67.3985
CA -8.93979 -22.0569 31.112
CA -21.6116 -1.81732 63.1389
CA -4.67473 -12.2842 32.9146
CA -9.46591 -18.9649 19.1697
CA -5.17647 11.3103 69.5227
CA -1.73616 5.80098 24.2455
CA 2.16014 4.41113 21.588
CA 2.91469 3.57107 26.8421
CA -13.136 12.0053 45.9401
CA 3.93948 -30.1738 40.8121
CA -6.29573 -6.37222 37.5112
CA -9.95358 -12.545 50.1851
CA -4.36855 8.50434 24.0685
CA -28.9425 2.00076 35.1008
CA 17.6313 17.2489 46.9518
CA -14.2817 -11.6909 52.7884
CA -16.5704 -12.7414 30.9856
CA -15.1039 -7.25077 43.5086
CA -14.9424 4.57804 54.0429
CA 0.0056083 -30.4566 42.4221
CA -8.40731 -14.9827 20.126
CA -17.1054 -14.1751 22.015
CA -8.42589 -3.58821 55.801
CA 28.2015 -28.6416 30.4072
CA -13.032 13.2333 52.7531
CA 3.07307 12.8623 75.3401
CA -1.77707 8.37122 23.9638
CA 25.8733 -27.4044 38.8391
CA 27.0969 -27.5148 40.9538
CA -6.76815 -8.14508 50.6943
CA 3.41773 -7.54703 85.094
CA -24.2952 -4.07436 71.6607
CA -10.1566 -3.78653 32.4318
CA 17.8362 -25.2901 37.1538
CA -5.79992 13.0967 23.8414
CA 8.37849 -23.8493 40.8435
CA 19.2043 14.0482 86.3244
CA -9.80772 -20.1447 34.4875
CA -7.37991 20.242 26.5146
CA -2.01432 -20.8616 37.784
CA 5.87291 -14.7266 33.7287
CA -3.62214 12.8226 48.6394
CA 18.1673 -20.7935 65.8195
CA -10.1483 -9.03372 31.486
CA -8.54231 12.8061 68.1531
CA 12.1104 -21.9137 68.308
CA -4.55566 -1.1203 27.0769
CA -4.95014 -9.48071 27.7589
CA -4.72393 10.3076 45.8005
CA 30.8723 -24.4377 44.1925
CA -3.94367 -1.99849 28.6093
CA -6.52451 -30.5332 45.8601
CA -14.2722 -19.3012 13.925
CA -13.9796 -21.7906 40.9982
CA -2.91672 15.8577 22.1572
CA -6.59508 -24.013 32.8226
CA -11.1952 8.51839 72.1419
CA -19.1287 16.0279 47.1178
CA -6.21973 12.0137 54.0257
CA -10.9319 -5.17032 47.5313
CA 5.03209 2.0032 25.6045
CA -9.45654 -16.4676 38.1946
CA 11.4548 -27.156 36.3829
CA -11.0226 -2.84356 36.0555
CA -3.42513 -34.4843 37.6314
CA 26.61 -4.02435 43.9333
CA -8.52912 11.3027 42.1736
CA -4.07044 20.247 46.1746
CA -27.2441 0.719985 63.3671
CA -25.0164 -5.25983 65.8614
CA -18.9384 4.52092 45.5551
CA -30.4031 -6.97683 60.0838
CA -14.114 6.12528 52.1915
CA -6.42925 -3.47501 46.9755
CA -4.05051 11.729 44.7079
CA 8.39485 -21.4907 41.0045
CA -11.2955 -20.2578 15.3471
CA -6.12099 -5.25614 53.6662
CA -17.3447 -8.57024 21.477
CA -23.6796 -4.07059 69.4037
CA -9.25341 -29.0294 46.9781
CA -10.5882 -13.7817 52.3059
CA -2.50541 -11.3775 31.1179
CA 12.0318 -20.3542 35.2068
CA -10.5129 -28.1287 49.0772
CA -4.26532 -18.3346 20.2071
CA -1.02596 15.3122 48.6574
CA 28.3263 -27.2324 34.7332
CA 1.53536 10.6747 66.8287
CA -3.94769 16.5702 53.6308
CA -15.3034 3.76723 70.0686
CA -29.9033 -0.959453 38.8112
CA 0.188693 3.16823 20.2821
CA 3.98316 1.35024 22.2158
CA 36.3925 18.4665 53.4613
CA -10.4129 -29.849 38.8595
CA -7.32575 4.13274 68.056
CA -4.28551 -7.09539 48.331
CA 15.5378 15.089 53.1508
CA 2.59305 1.44426 24.8169
CA 1.38036 21.7795 28.2592
CA -4.57721 16.9268 47.4014
CA -24.513 -6.07862 58.63
CA -19.5744 -1.70855 35.2151
CA -15.2371 6.11616 45.7818
CA -23.8168 0.851799 61.2681
CA -20.3884 -12.2428 64.8837
CA -22.114 2.83902 50.7834
CA -18.7561 -18.8714 17.5206
CA 1.9722 -20 33.0057
CA 5.44827 -25.6819 43.7181
CA -9.10656 -26.9981 45.3027
CA 3.18403 17.8577 50.5041
CA -15.2782 0.708017 67.9546
CA -26.5227 -2.38452 68.2141
CA 22.8081 13.7272 65.3853
CA -15.7806 -4.98628 50.1835
CA 20.5756 -21.765 67.351
CA -5.75438 -19.6053 35.4297
CA -30.835 -5.11269 58.9392
CA 8.7084 -20.6959 68.8016
CA 27.3688 12.4679 47.0824
CA 13.5132 17.7505 46.816
CA 25.1817 -13.0294 38.555
CA 1.63342 -29.4414 42.6882
CA 24.2945 22.0489 57.4711
CA -11.7657 9.13068 70.4574
CA -2.62388 14.6661 56.1139
CA -25.7665 5.81288 58.5158
CA 21.4413 13.4829 46.1417
CA -4.38955 -10.3117 39.1376
CA -4.37487 -34.3793 34.1653
CA -4.65242 13.622 46.3258
CA 0.0248242 12.6595 53.3455
CA -11.7474 -19.3502 20.9492
CA 7.56016 14.6378 52.822
CA -12.9685 0.396009 21.2366
CA -23.9064 -2.63799 60.5297
CA -18.8601 -17.1817 16.0677
CA -6.19734 -23.7386 51.8802
CA -3.59047 -31.0174 44.2684
CA -8.88111 -20.3957 14.9572
CA -11.8721 -15.7167 25.9463
CA -0.0936519 15.6214 73.8103
CA -21.292 -12.5312 56.4565
CA 4.65244 -19.2697 38.6263
CA 7.26664 -23.4619 70.2975
CA 14.2961 20.6103 58.7875
CA 11.0017 -19.9846 68.1215
CA -25.3728 3.97255 59.6153
CA -4.80924 19.4488 51.8505
CA 6.87267 4.76088 23.8704
CA -21.4173 -5.71829 72.3864
CA -30.7253 -16.5023 38.6591
CA 2.23884 -28.7656 44.3779
CA -11.7539 7.04399 44.3842
CA 4.4433 -17.3732 65.0153
CA -7.34583 0.657841 49.2366
CA -14.8807 0.324978 19.8911
CA 8.02435 -23.7309 38.7759
CA -2.96993 -10.828 36.1927
CA 0.933442 3.36898 23.9043
CA -23.0832 -2.42697 58.7543
CA 9.55118 14.4572 55.9071
CA -15.1017 11.2178 42.0577
CA -4.08908 12.8988 50.9415
CA 11.0713 12.5091 58.0285
CA -18.2995 2.58081 36.8936
CA -7.81614 -20.8281 39.2015
CA 28.4441 18.5836 65.1366
CA 16.125 -19.6938 64.375
CA -17.8665 -6.24436 33.5286
CA -13.1483 -14.013 50.7936
CA -1.8696 -4.84195 26.958
CA 0.782396 -16.899 34.4401
CA -11.8648 10.733 72.0497
CA -7.35542 -0.734254 28.9117
CA -12.9972 -19.7799 56.2901
CA -10.089 -6.70294 37.8259
CA -18.2026 -0.364253 64.1865
CA 0.903358 -7.72711 84.3462
CA -3.14936 4.15711 32.5365
CA -12.0362 9.97024 43.2388
CA 2.59495 -16.2757 34.5424
CA -10.8802 11.4358 50.0873
CA -5.63086 18.3337 49.9378
CA 20.8052 18.1027 55.5083
CA -19.9505 -4.78441 69.4495
CA -10.1928 -0.0975325 33.3604
CA 1.26461 4.72192 25.1993
CA -8.44324 11.889 44.3579
CA -8.35935 -8.98564 50.6073
CA -8.54643 9.3638 57.4933
CA 30.5011 -29.0719 32.2395
CA -11.9541 -19.7297 19.135
CA -8.46816 -31.8548 48.3574
CA 13.0973 -25.6124 35.8629
CA 17.6376 13.4947 87.4532
CA -3.47196 -24.9596 34.0754
CA -12.0742 -4.66717 21.9844
CA -10.9707 -18.2536 36.8397
CA -8.78885 8.71702 50.9683
CA -16.2372 25.5153 37.9754
CA -8.51957 -27.6388 40.5689
CA -8.6735 -7.70599 17.4184
CA -0.843569 6.69565 53.0867
CA -20.0665 -13.5438 28.0823
CA 6.36923 -25.589 37.0091
CA -21.4353 1.59262 61.2743
CA -2.86644 -4.21452 85.5872
CA 6.49393 15.6825 54.4778
CA -11.7501 -18.054 16.2524
CA -12.161 -4.6349 15.7997
CA 21.4439 20.2812 53.9893
CA -19.3647 3.97549 49.9714
CA 19.0602 15.9212 83.813
CA -6.52669 -32.806 43.9179
CA 3.61043 -27.5614 45.4778
CA 29.6125 12.8649 42.6984
CA -17.8362 -14.0576 56.5065
CA -5.84908 -25.6917 56.6755
CA -0.644965 -28.2618 42.0732
CA 5.4865 13.0518 76.4694
CA 16.5754 -30.0028 46.9252
CA -23.5316 2.31059 47.4072
CA 31.0722 16.197 68.7074
CA -5.83099 3.35152 49.1834
CA -17.2956 -20.9626 44.755
CA -5.55784 -32.4182 54.5895
CA -8.81579 -28.2965 57.3403
CA 13.7503 -20.3698 64.9717
CA -20.73 -8.3548 27.7688
CA -6.79843 -7.93395 45.7916
CA 2.45412 19.7842 47.9581
CA 27.1377 -11.0891 57.3947
CA -10.332 7.56225 63.6412
CA 19.4966 -25.064 38.6995
CA 7.58863 -22.4727 34.1964
CA 26.6483 -30.1918 44.5829
CA -20.2935 1.01716 35.0155
CA -18.9466 -11.3262 59.6108
CA -6.35504 -4.23632 30.595
CA -6.13843 -29.0294 54.5159
CA -7.76301 -21.866 15.4044
CA -0.780829 -6.2667 85.8619
CA -16.4803 -1.76831 48.1352
CA -7.89082 -32.9905 45.3703
CA 1.27533 -17.2466 40.1487
CA -25.773 -8.75146 58.9873
CA 7.31464 -23.5727 63.8629
CA 30.2096 20.9268 54.1046
CA -16.2663 -23.1726 18.0569
CA 6.78504 0.878349 28.4421
CA 10.4022 14.6529 79.2472
CA 11.5991 20.8136 41.7488
CA 28.4296 -11.995 43.786
CA 0.0818216 3.23892 84.8974
CA -9.44073 -12.5691 18.5826
CA -7.48169 8.63861 65.2864
CA -10.2843 16.1759 38.7883
CA 11.3474 23.8404 40.8435
CA 36.9103 21.979 54.8984
CA -21.0898 -8.61599 72.4451
CA -9.32791 12.8166 41.0771
CA -11.1776 -10.6188 53.0962
CA -30.1966 -14.1145 20.0714
CA -13.5712 4.06136 71.4816
CA 27.1056 -27.5902 45.5366
CA -11.7534 -11.7448 65.0869
CA 7.93771 20.8763 43.7305
CA -10.0269 -30.7923 40.8378
CA -7.8611 -8.95404 34.2995
CA 19.1671 15.9944 47.6251
CA 22.8395 -27.4863 45.3567
CA 28.3068 12.8043 45.4984
CA -20.4718 -7.7126 67.2748
CA -6.1817 -20.9898 20.6131
CA 15.595 -23.6003 35.2933
CA -11.3953 -12.8902 20.0256
CA 22.474 -18.6476 33.9036
CA 14.928 -24.4061 33.6889
CA -21.8916 0.84868 37.1664
CA 1.91213 5.72208 27.9972
CA -13.9349 11.7979 71.0527
CA -16.7429 -2.50105 34.2146
CA 37.751 18.7627 57.2623
CA -5.07202 -27.7953 55.9036
CA 25.7869 -12.6295 59.0288
CA 7.42846 -26.6229 39.4807
CA -5.27859 -12.2888 21.5506
CA 26.9405 -23.6671 36.1474
CA 21.234 -27.393 43.8806
CA -5.46336 15.0652 49.4821
CA 5.37149 19.9392 41.4314
CA -8.00734 -14.9924 48.4414
CA -8.1724 -12.4174 32.175
CA -28.5918 -0.202341 34.334
CA -7.15647 -17.507 40.0298
CA 10.5334 -21.0512 69.524
CA 1.91346 14.4493 73.1421
CA 6.5747 -10.6089 31.1381
CA 1.73426 -13.5291 26.1175
CA -5.62886 -21.7676 34.7823
CA 21.7826 -6.40523 36.1768
CA -13.4193 -9.84771 23.4727
CA -18.6227 -28.5883 38.9295
CA 4.75761 4.21335 28.4751
CA -0.420701 -21.4992 36.0103
CA 3.07248 -9.63562 89.3116
CA 5.93685 18.9052 50.7373
CA -7.62625 19.9265 56.0952
CA -1.81797 4.54284 11.8302
CA -22.2846 -5.55044 60.4117
CA -9.07191 12.2729 62.8549
CA -15.817 -22.7266 14.5612
CA -17.0056 -10.3853 25.8888
CA -9.76338 -7.52899 33.8887
CA 5.71496 19.6315 43.28
CA -26.002 -1.78124 61.4339
CA -16.4957 -8.31746 68.7592
CA -16.2666 -26.7749 38.4461
CA -18.6083 -4.86717 73.7346
CA -7.45272 -3.42713 80.482
CA -19.8342 -6.48447 43.9449
CA -9.46099 13.3056 39.2441
CA 10.2462 22.0572 47.2815
CA -2.32253 21.5841 28.856
CA 20.2782 16.4398 54.22
CA -6.34768 -35.61 37.098
CA -24.5113 0.246071 49.1335
CA 28.9753 -30.9423 33.1478
CA -1.94222 -15.616 81.577
CA -3.52431 4.02015 30.7635
CA -20.6478 -5.47646 36.8743
CA -8.63278 -6.19974 18.6923
CA -4.88594 -22.6246 55.596
CA -9.00723 -16.6051 31.54
CA -16.9628 -4.1512 36.2622
CA -4.51837 -4.86884 42.2915
CA 9.39221 -24.558 70.7074
CA -6.55784 -0.845835 61.1721
CA -1.38374 4.08793 56.6827
CA 7.44796 19.5711 42.402
CA -21.765 -8.7999 56.1771
CA -4.638 19.1809 22.7437
CA -38.2636 -15.0599 39.0382
CA 27.3589 15.3904 66.4417
CA -1.84458 6.73725 41.8212
CA -23.3979 -3.28235 63.9327
CA -6.39576 -9.01799 39.3669
CA -21.6979 -1.95276 57.1533
CA -15.4225 10.0595 47.2619
CA -30.9353 0.087397 32.9338
CA -15.798 0.444333 48.6803
CA -0.407576 -25.409 35.0005
CA -13.2449 -37.4095 46.0394
CA -7.34223 -8.32292 75.9967
CA -16.305 -28.5125 15.9492
CA -12.1854 -6.34396 19.2754
CA -22.1876 -8.6824 67.0615
CA -21.626 -3.75642 71.2667
CA -19.0135 -33.2385 19.7333
CA 2.92634 9.30682 69.1043
CA 27.708 12.0879 42.2351
CA 7.28322 18.5136 46.3748
CA -14.3279 -12.827 21.9806
CA -18.1124 -20.9342 15.7092
CA -13.1496 -0.688574 33.8802
CA -17.6866 26.0107 40.151
CA -3.35123 -8.43533 44.9805
CA 6.17682 9.6129 75.341
CA -12.7076 -3.89973 32.399
CA -1.84583 13.6083 46.9695
CA -9.39884 4.67625 68.9262
CA -3.11824 11.0161 77.515
CA 3.22959 -2.67799 85.5109
CA -16.2718 -23.7335 43.3802
CA 19.7392 -29.0751 47.7187
CA -9.17618 -29.8809 37.2043
CA -13.1013 -21.1941 15.552
CA -6.79345 -20.7307 36.3947
CA 28.0563 -8.8759 40.2056
CA -13.795 -11.624 65.7097
CA -11.2014 -4.14799 19.905
CA -18.0142 -2.61291 37.543
CA -13.8667 -13.8521 23.5081
CA -2.63084 13.5613 21.2337
CA 3.50658 20.9532 46.878
CA 10.4699 -23.012 68.8207
CA -3.81117 -7.59637 24.5409
CA -6.48285 -25.838 51.709
CA -6.59724 -18.1306 42.171
CA 6.29643 -15.0464 62.0822
CA -15.2339 -21.6199 48.3223
CA -2.57275 -21.9983 35.2334
CA -11.3453 -11.7975 21.8806
CA -3.64838 11.2735 22.7833
CA -5.35978 18.6321 27.3478
CA -16.3811 -4.56202 32.2411
CA 17.8831 16.148 54.9482
CA -32.6703 -16.7306 39.3487
CA 5.26146 -21.5563 62.8787
CA 31.4651 -26.4562 45.3338
CA 28.2336 -31.5664 42.2935
CA -10.9895 -18.2665 18.1499
CA -6.68311 -18.5081 43.9982
CA -8.33676 -18.415 16.7574
CA -6.88874 13.3985 46.2859
CA -0.291814 -31.7374 35.0569
CA -6.64762 -3.2039 78.6273
CA -16.6378 0.788493 36.319
CA -13.3146 -17.817 13.2803
CA -8.3834 -21.6382 19.7556
CA -4.36726 6.52684 51.8346
CA -7.94776 -10.1596 48.4747
CA 4.53507 -36.3875 41.3888
CA -2.88859 15.6714 51.3548
CA -22.607 7.44507 48.7967
CA 3.80757 -26.8626 40.2818
CA 21.2279 16.3384 44.2611
CA 5.40954 19.3646 46.7269
CA -16.6199 -7.55492 62.2554
CA -12.7133 -0.3047 23.9101
CA 1.70417 -19.8259 70.4749
CA -7.28018 4.81149 64.4687
CA 1.73349 9.95713 72.6865
CA -8.84609 -21.9728 12.2115
CA -2.02966 21.9583 26.784
CA 1.41875 19.6184 43.0063
CA 5.13746 -28.9422 40.101
CA -10.7391 5.33414 41.2885
CA 5.60753 13.5137 79.002
CA -7.05651 -31.3316 40.65
CA -6.05517 -28.8794 38.8955
CA 1.64592 -24.2372 69.2554
CA -8.34054 -22.1879 37.3049
CA -13.0903 -11.4623 49.4194
CA -21.2966 -3.01698 67.2031
