489

CA -25.663 -40.1042 79.7159
CA -24.8316 -32.4059 78.0351
CA -40.5333 -17.3305 63.1922
CA -42.9789 -5.53329 55.888
CA -20.262 -35.558 53.0284
CA -21.5351 -23.4055 76.6494
CA -20.3833 -20.5912 69.1758
CA -26.5634 -4.39719 65.2195
CA -19.7706 -32.6015 57.1172
CA -40.8011 -18.6456 43.5538
CA -19.9253 -19.9033 66.2731
CA -48.1427 -25.8765 44.7064
CA -25.5503 -37.8548 73.8788
CA -38.1126 -26.7008 61.363
CA -26.464 -32.3414 73.7468
CA -1.92103 -22.5831 37.3727
CA -13.6828 -10.8148 13.8799
CA -42.9539 -1.50858 54.0555
CA -14.3007 -22.1881 14.4828
CA -21.3361 -20.2064 38.8269
CA -15.7564 -15.1512 69.5024
CA -16.3632 -28.5685 38.3248
CA -24.2705 -9.08202 41.0328
CA -36.0261 -37.504 69.9774
CA -6.63148 -6.56196 20.3202
CA -13.0172 -11.0389 51.548
CA -17.4216 -9.06915 44.2479
CA -29.6887 -16.6487 41.0575
CA -20.1153 -29.3019 28.7919
CA -21.6607 -16.4688 61.9125
CA -10.0373 -20.5155 46.3078
CA -30.8651 -39.2926 47.415
CA -41.9215 -18.3539 45.1273
CA -24.7593 -35.5249 76.3818
CA -15.498 -18.5294 17.8113
CA -18.722 -14.1077 59.477
CA -12.8262 -19.4333 9.63643
CA -32.8275 -11.8818 52.9281
CA -15.5335 -26.9963 54.9736
CA -23.0385 -27.3199 82.9125
CA -22.5675 -38.5044 42.9233
CA -0.208694 -17.1111 49.8025
CA -25.5541 -9.08592 48.0565
CA -26.0176 -22.9701 82.4506
CA -39.9577 -20.8515 68.9599
CA -18.2708 -8.99198 70.5983
CA -36.9623 -9.27279 71.9896
CA -16.1601 -3.15469 40.504
CA -21.5814 -24.6709 91.7804
CA -39.6605 -14.3735 46.0475
CA -13.0501 1.95259 18.9658
CA -9.93938 -29.7611 45.923
CA -13.7959 -30.5289 15.521
CA -29.0683 -41.7592 82.0693
CA -38.3765 -2.14764 64.7147
CA -36.9315 -26.6466 52.6171
CA -9.09956 -5.8987 19.4332
CA -10.8824 -6.6054 53.0689
CA -17.189 -23.7979 60.9843
CA -20.6386 -23.8378 20.9569
CA -39.1811 -19.6333 63.4061
CA -18.7589 -6.03497 65.7014
CA -42.0774 -16.5155 64.9527
CA -35.242 -23.3324 53.8127
CA -14.4105 -5.74073 45.8994
CA -27.1692 -24.6043 44.5145
CA -12.4631 -11.5834 65.3913
CA -36.3261 -33.6343 69.0052
CA -20.2288 -11.592 87.9301
CA -19.6996 -26.2887 62.917
CA -17.4947 -5.64382 46.8194
CA -24.418 -33.6397 61.424
CA -9.33802 -2.43779 17.4935
CA -22.2216 -7.05041 54.8711
CA -26.4304 -19.1427 40.9522
CA -24.3724 -45.1382 57.9248
CA -26.3249 -25.3016 67.9529
CA -19.1507 -16.8716 72.4655
CA -23.1987 -25.4762 52.346
CA -30.0413 -15.0151 58.1265
CA -21.8859 -23.367 85.8549
CA -0.388183 -24.4373 46.0051
CA -13.3549 -27.3708 77.9096
CA -39.7169 -14.9675 68.6836
CA -8.07316 -27.6455 50.6919
CA -47.1552 6.98132 52.5141
CA -20.9319 -4.90963 86.0266
CA -18.0203 -7.1566 55.963
CA -10.2239 -13.3555 60.0647
CA -35.309 -13.7983 58.8205
CA -12.6958 1.60162 42.6328
CA -10.6709 -1.32926 19.1617
CA -44.0932 -23.5181 44.3276
CA -16.123 -5.98193 13.5575
CA -19.8407 -5.0203 40.0121
CA -38.3379 -26.5134 55.1161
CA -16.8418 -17.9579 31.7655
CA -42.3293 -22.3618 53.0783
CA -28.3565 -9.52921 39.2664
CA -31.5063 -39.5288 82.4028
CA -18.14 -19.3053 42.672
CA -7.37028 -20.7098 38.4778
CA -40.3441 -25.0763 51.7835
CA -43.3358 -16.7334 53.9796
CA -36.6579 -26.3839 67.0248
CA -39.3196 -9.6645 59.7962
CA -19.4942 -31.3137 36.2533
CA -18.3275 -23.8553 16.218
CA -20.085 -24.3729 84.5799
CA -16.435 -20.4348 68.7551
CA -37.6558 -21.783 54.0929
CA -27.5071 -34.8441 81.2169
CA -6.13325 -31.6699 48.8667
CA -7.21251 -23.0085 33.3711
CA -46.0797 -19.0063 43.5752
CA -8.81129 -13.8472 64.6913
CA -25.7328 -20.5529 68.3268
CA -30.2938 -42.1913 50.6385
CA -4.12582 -5.65949 1.01288
CA -12.8665 -6.20051 44.3728
CA -20.6744 -27.8028 36.2011
CA -20.6416 -9.49532 72.3842
CA -12.5125 -18.1318 6.1235
CA -13.7844 -16.9847 29.1986
CA -7.78121 -24.7107 47.8812
CA -36.0488 -11.448 60.2429
CA -25.157 -23.3637 52.5501
CA -9.24181 -9.18956 7.90799
CA -20.1931 -15.1799 43.5996
CA -32.56 -42.2696 54.3876
CA -23.1672 -13.9491 73.3872
CA -11.7547 -6.14257 67.1193
CA -24.2219 -7.20797 36.9936
CA -30.6619 -21.1601 61.9992
CA -24.5244 -26.1776 72.6182
CA -20.5238 -28.7454 69.0042
CA -18.8333 -24.3246 22.2394
CA -21.4632 -21.0284 64.6729
CA -41.4653 -16.4609 53.9446
CA -17.708 -4.15541 23.7145
CA -3.42795 -13.4801 60.7209
CA -32.0977 -11.4693 59.4112
CA -18.13 -35.6648 61.8552
CA -23.2092 -42.4996 50.1291
CA -12.522 -13.6524 54.0778
CA -30.2965 -25.5432 37.5425
CA -16.0609 -16.3469 64.3466
CA -22.152 -36.7591 76.6898
CA -19.144 -10.1209 38.3726
CA -17.1141 -8.17147 20.3122
CA -14.1416 -20.3553 47.4265
CA -8.48044 -2.05313 5.10544
CA -8.45138 -19.7111 57.8911
CA -30.912 -40.0622 56.9755
CA -17.7733 -23.0077 77.9523
CA -39.8768 -12.1813 73.3128
CA -43.1286 -20.422 71.8583
CA -1.64543 -19.1239 63.9777
CA -44.9962 4.00982 55.3969
CA -8.86121 -34.7707 16.846
CA -19.8249 -14.5737 47.3599
CA -10.5367 -8.79831 58.4716
CA -16.1932 -20.014 23.4725
CA -28.6426 -13.0365 39.0184
CA -35.9477 -1.31189 66.8561
CA -24.4217 -10.2285 74.2499
CA -15.9061 -22.3423 66.6449
CA -44.4618 -16.5289 65.9192
CA -5.54702 -23.9891 49.7156
CA -22.6872 -40.4066 47.7201
CA -13.8513 -27.5008 52.2645
CA -12.5193 -28.548 71.065
CA -16.1471 -7.61703 53.7797
CA -25.7799 -5.38085 45.359
CA -36.7716 -18.7371 37.3709
CA -23.2802 -1.31388 67.3369
CA -40.826 -19.4171 67.4921
CA -18.8791 -36.0558 59.0575
CA -14.5515 -12.9121 18.72
CA -11.8666 -13.5116 47.0102
CA -22.3892 -32.2838 80.3557
CA -28.3285 -22.1394 37.7529
CA -41.6438 -33.2918 75.5263
CA -37.8374 -11.9857 51.0781
CA -25.3544 -14.8955 61.3455
CA -29.1075 -9.67526 52.3659
CA -17.6223 -25.158 91.5061
CA -43.9617 -6.40445 58.0704
CA -26.9921 -20.5467 71.9362
CA -18.1642 -32.2799 78.572
CA -12.5814 -28.7528 15.3126
CA -26.1561 -44.2998 55.8056
CA -26.0909 -31.4337 52.1002
CA -20.033 -19.8533 45.8822
CA -43.6895 -27.3552 54.4585
CA -43.6211 -14.2608 74.2855
CA -12.8019 -23.2489 27.9068
CA -30.2459 -29.6426 71.3482
CA -44.8219 -17.888 80.7042
CA -40.1564 -14.6446 43.7893
CA -18.0538 -25.7818 59.5599
CA -11.3584 -24.7539 28.5435
CA -20.9861 -10.8488 49.2757
CA -11.9978 -9.20602 61.924
CA -12.3559 -28.0861 57.0496
CA -24.6482 -30.4662 16.2742
CA -26.1076 -37.6513 47.9453
CA -5.50305 -8.62461 51.6495
CA -5.41934 2.83282 2.78914
CA -9.63334 -10.5186 63.9599
CA -23.5821 -21.8539 61.1389
CA -42.6485 -21.0642 70.0499
CA -9.32796 -30.5833 56.958
CA -29.1051 -7.99002 61.1272
CA -22.9638 -32.5417 61.038
CA -36.4721 -15.8369 65.5866
CA -27.4717 -6.81743 56.7569
CA -17.854 -15.3617 53.1861
CA -19.3241 -4.78869 55.6609
CA -19.2496 -32.6139 86.2898
CA -1.57279 -24.5806 50.7466
CA -22.484 -16.7212 93.764
CA -1.79552 -10.9766 54.4609
CA -29.3354 -20.7966 60.809
CA -20.0306 -17.5511 89.9252
CA -20.5636 -33.5948 80.361
CA -12.8245 -27.9043 54.6889
CA -42.4371 -33.1011 41.928
CA -27.4349 -5.87813 62.2361
CA -8.50474 -27.6701 35.9449
CA -13.8226 -31.1109 17.581
CA -33.001 -24.5338 64.345
CA -42.2363 -28.7101 77.3062
CA -9.95886 -21.3673 38.9184
CA -20.545 -6.43437 8.26758
CA -20.8918 -39.3232 50.9273
CA -38.7849 -21.9426 41.8933
CA -25.2291 -35.4394 44.9684
CA -36.553 -36.4657 44.2888
CA -27.333 -31.3346 58.7293
CA -16.4201 -35.6492 73.1589
CA -28.9226 1.48599 67.1547
CA -40.709 -16.5454 44.3533
CA -43.8744 3.40069 58.3473
CA -7.83426 -27.0455 16.1358
CA -14.4214 -27.5558 65.7831
CA -30.3444 -35.4833 43.8957
CA -27.3224 -15.344 74.8353
CA -26.1395 -20.5683 31.4905
CA -30.7859 -8.31 40.5016
CA -34.6545 -19.9993 36.3182
CA -10.1636 -32.2096 52.7924
CA -37.2408 -16.5678 35.9152
CA -20.1695 -15.7298 91.0371
CA -5.42144 -33.7732 49.8543
CA -27.7831 -15.1863 70.1526
CA -44.3572 1.72214 57.0277
CA -23.7849 -21.3982 42.9592
CA -7.25827 -39.6518 15.8611
CA -38.4509 -15.3996 76.6578
CA -16.5884 -40.9783 63.6189
CA -16.0959 -26.6861 78.2477
CA -42.1299 -8.9788 59.4851
CA -36.665 -7.18662 67.1305
CA -20.3923 -5.07149 67.7401
CA -22.7098 -17.051 42.3429
CA -36.6875 -17.1467 51.4597
CA -44.8044 -22.0534 72.3373
CA -41.6541 -26.8139 42.8407
CA -36.344 -7.80881 65.2763
CA -47.4753 -23.1171 74.9631
CA 1.04694 -22.7493 50.468
CA -11.5894 -18.8196 48.4948
CA -12.0097 2.3945 22.0055
CA -24.9545 -34.0811 42.8162
CA -17.6746 -5.8258 9.39435
CA -3.95116 -8.15498 53.7657
CA -23.6375 -24.043 57.2759
CA -39.3506 -32.511 73.0983
CA -8.39721 -30.3868 50.1311
CA -34.549 -24.0625 68.1214
CA -14.521 -6.63447 39.765
CA -38.2054 -31.3295 43.2801
CA -39.1008 -11.4084 62.689
CA -19.6589 -24.3966 45.8793
CA -40.7425 0.34614 53.2553
CA -38.9842 -6.17049 68.6584
CA -28.4523 -14.8706 30.0473
CA -18.9245 -24.5016 47.6471
CA -10.7806 -23.0278 43.4823
CA -13.5858 -6.39881 55.0734
CA -19.0035 -2.63224 56.428
CA -36.3867 -28.2012 67.4833
CA -22.7849 -22.8777 62.5274
CA -41.8026 -29.8295 59.3
CA -35.7993 -9.93932 61.5516
CA -17.6947 -28.7394 25.2818
CA -36.4136 -28.8608 51.475
CA -22.0286 -33.2133 34.2576
CA -18.3588 -4.01437 46.7165
CA -13.4895 -5.21048 15.1424
CA -35.5159 -8.33169 42.3079
CA -31.673 -36.344 57.0723
CA -19.4756 -33.0215 16.9986
CA -12.6703 -24.816 30.8297
CA -28.3621 -30.0583 64.48
CA -20.0264 -29.9924 16.0805
CA -9.10087 -32.7794 50.1234
CA -32.7985 -21.7398 45.1886
CA -51.0342 -7.94772 58.8081
CA -18.4694 -11.3442 16.6275
CA -11.003 -19.1612 44.252
CA -19.0346 -14.0291 52.4953
CA -28.8817 -42.3526 57.8202
CA -23.413 -18.9244 92.6136
CA -25.1649 -25.9703 88.2487
CA -4.87585 -7.69776 2.8672
CA 1.52765 -24.7206 35.7316
CA -25.7899 -20.1464 60.9421
CA -10.6395 -19.5357 17.8752
CA -31.131 -21.3522 36.5053
CA -44.8347 3.06025 59.9805
CA -14.5904 -35.558 15.2305
CA -26.6014 -33.3707 54.9967
CA -41.3135 6.21757 60.1965
CA -41.1938 -26.1323 57.9094
CA -22.9453 -16.8144 72.1776
CA -35.394 -9.6477 64.3547
CA -28.9855 -38.2748 61.0149
CA -5.4272 -20.7417 34.8239
CA -42.1173 -5.8679 58.2024
CA -24.3569 -18.6836 39.6574
CA -31.669 -13.5051 44.9214
CA -40.0512 -20.3396 76.4258
CA -31.0585 -23.0441 39.1068
CA -21.4162 -31.8147 54.4723
CA -4.1206 -25.1826 36.9568
CA -21.3515 -27.4272 87.0308
CA -21.4784 -29.9557 35.4834
CA -21.6023 -14.5304 62.8799
CA -43.907 5.50779 59.5866
CA -24.7641 -41.3185 48.6332
CA -34.2655 -21.7637 66.3398
CA -16.5576 -6.34527 45.1366
CA -42.4938 -18.6097 77.4293
CA -28.2503 -7.31042 59.6847
CA -26.9539 -28.7362 18.2689
CA -27.9206 -23.3622 43.307
CA -5.41956 -19.8916 62.8366
CA -26.1716 2.08033 64.3998
CA -22.5059 -4.14562 8.53048
CA -24.3382 -12.6844 76.6015
CA -4.94194 -8.2792 62.1443
CA -25.988 -31.8456 65.2842
CA -34.7297 -8.47428 52.6836
CA -15.6994 -8.5835 44.7474
CA -38.7302 -22.8769 72.4274
CA -30.8525 -12.2437 66.0511
CA -25.9219 -17.0833 33.3479
CA -18.0254 -19.689 46.6844
CA -42.7647 -24.6911 73.9218
CA -12.9838 -28.4347 59.06
CA -22.3549 -11.3725 45.297
CA -23.7776 -37.7586 49.4956
CA -3.86546 -12.7831 62.9094
CA -23.3332 -22.71 80.6918
CA -23.585 -34.267 83.1773
CA -31.553 -27.4808 37.3627
CA -17.9098 -31.8357 70.0382
CA -2.60024 -16.4453 57.5792
CA -39.1406 -13.8134 73.8938
CA -26.6232 -34.9473 43.7966
CA -23.7121 -23.7749 75.0052
CA -23.7496 -34.8824 52.3994
CA 0.280149 -20.3766 61.1953
CA -26.3542 -30.4937 44.7409
CA -9.39132 -13.5171 51.7789
CA -6.91692 -13.2213 66.722
CA -19.8181 -20.8039 77.7401
CA -11.2316 -21.0221 43.1943
CA -14.6695 -27.4601 34.7051
CA -14.3846 -5.11153 40.8419
CA -9.43564 -27.1053 17.743
CA -12.2104 -11.9046 62.5302
CA -25.3967 -42.4075 76.0061
CA -32.4568 -14.0863 39.8539
CA -35.0725 -21.247 33.4037
CA -26.1945 -38.1985 69.2142
CA -22.7973 -37.7609 66.9605
CA -15.48 -9.24228 14.2562
CA -24.1946 -18.3769 33.5622
CA -25.5714 -25.0826 55.0059
CA -14.5211 -17.7186 59.7786
CA -4.35828 -1.03102 1.8032
CA -40.4219 -19.435 39.9591
CA -38.7026 -23.4749 56.7216
CA -11.2244 -21.1568 22.9033
CA -19.6203 -12.8285 17.8144
CA -20.3028 -20.9355 42.1905
CA -7.39192 -24.5306 36.9991
CA -9.48564 -32.2025 47.3503
CA -4.99697 -18.746 49.3785
CA -19.596 -17.6197 93.7639
CA -15.0213 -7.00253 14.7717
CA -10.5953 -12.934 67.7291
CA -28.8005 -28.2034 65.993
CA -27.8671 -9.54072 48.037
CA -2.96706 4.2149 1.98145
CA -16.7885 -7.51714 86.7687
CA -28.8878 -5.93769 60.8213
CA -25.5912 -25.0703 46.178
CA -38.2286 -30.3285 78.2294
CA -46.9707 -8.015 56.3877
CA -24.3969 -39.6377 70.3422
CA -26.3168 -18.1739 35.7989
CA -14.142 -20.6862 24.0069
CA -24.7928 -11.0722 41.485
CA -15.918 -31.6614 32.5833
CA -27.182 -28.9023 70.2808
CA -36.0011 -23.5343 66.1032
CA -23.5506 -25.4019 83.2546
CA -43.9989 -26.6501 50.04
CA -23.4763 0.204005 56.1993
CA -12.4094 -6.25066 4.86971
CA -13.6517 5.04028 15.8747
CA -9.32717 -25.0168 35.2382
CA -11.8185 -8.08105 24.0451
CA -11.5866 -22.9666 22.2139
CA -44.1039 -12.0295 77.551
CA -18.9181 -6.66524 23.7468
CA -30.801 -18.0817 64.5066
CA -30.4912 -8.21557 44.0788
CA -28.4714 -39.4912 84.6244
CA -30.1052 -21.5866 38.3422
CA -14.6105 -11.3364 67.4285
CA -16.548 -17.7237 34.4105
CA -42.2598 -14.1159 76.3438
CA -19.5063 -24.9316 74.5305
CA -19.1179 -37.7225 53.9539
CA -12.4265 -20.0283 25.1887
CA -12.009 -25.2803 56.4292
CA -9.4357 -5.27512 5.40766
CA -40.8389 -29.1509 75.4996
CA -15.0511 -26.1284 69.8861
CA -27.7512 3.15664 67.1574
CA -5.31967 -7.38182 57.8173
CA -16.1289 -27.3894 33.4177
CA -38.2674 -6.59655 65.7412
CA -9.53221 -1.9635 45.174
CA -29.9727 -17.5887 46.7223
CA -4.53069 3.57349 4.28487
CA -8.42117 -16.6286 55.2441
CA -11.3613 -20.2504 57.2423
CA -6.94418 -11.301 57.3033
CA -38.7976 -15.2373 53.621
CA -40.9262 -16.3041 67.8334
CA -19.6986 -8.28703 13.2676
CA -16.9871 -4.74131 66.4601
CA -21.5174 -13.6645 61.1634
CA -39.8075 -22.3054 54.7613
CA -16.1706 -8.77275 69.3209
CA -3.4112 -6.32607 61.2556
CA -15.885 -16.0642 18.9318
CA -19.9577 -20.3232 94.1026
CA -23.2569 -3.26288 65.0594
CA -29.2638 -37.725 57.5686
CA -8.96825 -17.4628 53.6954
CA -14.4688 -28.0806 20.6809
CA -40.2471 -18.7934 54.0859
CA -40.1724 -29.7494 47.1084
CA -13.1521 -19.2937 22.6088
CA -20.0321 -26.8368 37.8777
CA -25.6588 -3.65333 55.5294
CA -21.1341 -25.8436 52.0625
CA -20.9486 -2.25721 56.0556
CA -11.9978 -30.8864 17.962
CA -13.8636 -7.05945 8.20367
CA -20.0726 -11.6335 56.6658
CA -26.4383 -18.4644 77.4208
CA -38.1401 -17.0173 39.6695
CA -19.5087 -8.97672 54.5338
CA -2.43477 5.50227 5.08444
CA -20.6288 -34.5736 74.6215
CA -26.7502 -23.4866 78.4708
CA -38.96 -19.0954 41.3422
CA -14.8404 -24.8338 19.3347
CA -34.6663 -10.1368 58.4413
CA -26.7325 -37.1674 45.2372
CA -19.6505 -0.000900382 88.287
