489

CA -30.2789 -34.4053 45.5572
CA -9.30707 -28.8466 16.4065
CA -36.9564 2.20692 71.1539
CA -13.1803 -27.9317 26.626
CA -45.7003 -0.952014 53.9656
CA -21.5351 -23.4055 76.6494
CA -33.6396 -28.8172 34.2323
CA -23.4849 -2.87403 61.3305
CA -11.8585 -19.8909 41.6835
CA -38.1701 -24.4872 71.2122
CA -28.9994 -29.8153 67.8373
CA -16.5053 -27.0033 25.6585
CA -40.8474 -26.4878 46.1434
CA -7.12386 -9.66889 54.8874
CA -27.9961 -15.3778 48.7693
CA -35.5704 -9.85743 43.8499
CA -10.443 -19.3728 35.8472
CA -36.426 -30.7932 51.9603
CA -30.6464 -47.7678 78.2609
CA -23.4637 -18.2561 35.2234
CA -11.5183 -25.9983 57.6436
CA -40.9707 -28.2604 63.3924
CA -37.8478 -21.4631 35.2577
CA -13.181 -28.225 62.6231
CA -40.8654 -21.8292 81.9906
CA -35.151 -1.6412 66.0233
CA -21.8324 -29.8662 44.5881
CA -22.0267 -6.1589 7.00924
CA -19.1585 -7.79151 61.7886
CA -36.1821 -32.7365 45.8475
CA -5.72362 -26.4788 44.7156
CA -7.75426 -9.91332 16.7188
CA -34.8551 -26.0613 55.212
CA -7.23699 -15.6911 54.258
CA -15.498 -18.5294 17.8113
CA -35.4122 4.93811 74.8187
CA -39.5433 -3.51993 58.2299
CA -24.4545 -36.5724 54.7302
CA -16.9663 -20.181 20.5169
CA -31.4155 -17.6765 55.9864
CA -50.84 -7.2238 56.7179
CA -25.2529 -27.8639 32.5293
CA -25.5541 -9.08592 48.0565
CA -29.0106 -13.2752 50.0489
CA -18.9142 -20.0068 26.3967
CA -30.2762 -11.2477 48.52
CA -32.9287 -24.5011 51.1875
CA -16.1601 -3.15469 40.504
CA -21.7657 -5.16787 40.6126
CA -30.8227 -32.1593 39.9833
CA -13.502 -4.38481 18.8425
CA -28.4322 -22.4613 61.9116
CA -20.1764 -29.591 55.9909
CA -19.1941 -20.2758 77.9126
CA -30.6734 -41.902 84.1492
CA -21.7628 -20.9596 38.296
CA -9.09956 -5.8987 19.4332
CA -48.2413 -5.68915 56.0364
CA -40.8172 -11.9778 54.0152
CA -31.9072 -23.0024 33.0656
CA -48.4515 -18.9864 69.526
CA -26.9596 -24.7621 73.5434
CA -9.86822 -8.92376 61.1264
CA -41.4411 -15.6492 63.4724
CA -13.083 -9.89823 12.6182
CA -42.7185 -22.4294 41.1496
CA -40.0861 -23.9487 71.7973
CA -21.103 -27.8754 50.8184
CA -28.8881 -11.0501 45.8975
CA -10.832 -7.20835 20.9923
CA -13.5793 -17.3293 40.2892
CA -41.3083 -24.7151 63.6285
CA -40.4288 -20.6854 62.1236
CA -15.0282 -37.4826 26.0198
CA -40.0314 0.777886 58.2377
CA -16.4927 -27.1608 20.0807
CA -13.5889 -9.38513 5.56201
CA -25.8358 -2.37945 57.1753
CA -32.8599 -28.2818 30.2586
CA -19.6903 0.890289 66.925
CA -42.4825 -11.5682 53.1463
CA -12.2082 -22.3278 70.0534
CA -45.2168 -13.9091 75.374
CA -18.4646 -23.2913 60.2568
CA -30.4546 -2.23802 59.3548
CA -23.1951 -1.6418 39.7117
CA -44.6925 -17.0252 77.6483
CA -34.5211 -25.6318 52.0056
CA -15.7178 -34.182 37.6572
CA -20.2604 -25.366 62.9043
CA -25.0361 -32.2115 57.9053
CA -10.6709 -1.32926 19.1617
CA -25.382 -17.4277 54.9193
CA -36.8241 2.78253 47.7151
CA -28.435 -13.4405 36.4021
CA -40.883 -25.72 72.0872
CA -40.8085 -16.1359 71.9558
CA -16.857 -32.0801 41.4122
CA -28.648 -28.3247 54.2002
CA -10.337 -20.3988 50.0165
CA -34.4203 -34.1589 60.9644
CA -21.1719 -3.24626 50.2442
CA -12.4157 -18.3213 13.1911
CA -44.4798 -13.8196 50.7023
CA -29.2378 -19.5324 65.452
CA -18.5484 -6.91897 38.4077
CA -32.1668 -36.0822 69.8496
CA -18.3275 -23.8553 16.218
CA -14.2478 -18.7249 33.4408
CA -16.435 -20.4348 68.7551
CA -37.6558 -21.783 54.0929
CA -30.3867 -44.4314 78.1652
CA -4.63354 -16.7733 55.9413
CA -27.2082 -23.4531 84.6048
CA -7.92668 -19.5358 54.1282
CA -18.4056 -22.6026 21.5779
CA -23.8065 -6.40397 66.5077
CA -39.3982 3.66619 51.9898
CA -4.12582 -5.65949 1.01288
CA -12.8665 -6.20051 44.3728
CA -34.6204 -26.0271 39.9146
CA -18.2092 -12.3257 53.7776
CA -28.4727 -34.7701 56.5855
CA -29.0031 -33.1284 75.9509
CA -29.7288 -21.6203 43.6004
CA -38.6133 -23.7104 30.1909
CA -37.1286 -5.43475 65.9164
CA -17.917 -27.8658 57.9893
CA -20.4388 -39.0325 49.026
CA -30.2079 -33.9169 77.6813
CA -17.6829 -30.2925 42.1982
CA -48.5721 -10.7672 55.8616
CA -19.3873 -28.6361 29.2885
CA -39.5323 -31.1402 73.4415
CA -19.2958 -24.3105 64.0647
CA -36.4559 -14.9408 57.3701
CA -10.5971 -10.7317 17.6222
CA -27.1348 -21.4468 37.4915
CA -24.6975 -20.9046 62.2719
CA -12.1205 -24.6511 45.458
CA -12.0263 -26.9599 30.9912
CA -19.4696 -3.68312 49.8128
CA -19.8463 -23.6785 91.8145
CA -26.9332 -9.8803 45.7125
CA -12.522 -13.6524 54.0778
CA -34.8015 -28.6232 25.7371
CA -31.5721 -34.355 79.1249
CA -22.152 -36.7591 76.6898
CA -34.426 -28.8451 40.8085
CA -26.6056 -34.5778 47.4807
CA -42.4732 -31.8577 67.5945
CA -8.48044 -2.05313 5.10544
CA -45.1359 -23.0998 59.596
CA -19.8692 -25.6313 21.4074
CA -46.2135 -20.1189 72.707
CA -17.8743 -37.688 17.2581
CA -43.1286 -20.422 71.8583
CA -26.2994 -11.4619 37.8106
CA -44.2106 -31.2058 74.8373
CA -23.5164 -29.0084 75.8598
CA -19.8249 -14.5737 47.3599
CA -26.5674 -24.1894 57.0571
CA -20.887 -37.529 58.0141
CA -11.5963 -21.272 29.5764
CA -45.0827 -32.3145 52.6756
CA -19.5552 -29.9109 68.7969
CA -46.8871 -11.7542 53.4005
CA -48.0398 -20.6883 68.2762
CA -44.4089 -5.73335 51.0228
CA -26.4763 -9.05707 34.865
CA -29.712 -40.6602 51.4983
CA -6.50584 -18.1938 53.3947
CA -30.1458 -2.7618 64.7747
CA -30.9681 -28.7884 63.4277
CA -22.2482 -40.8931 42.0927
CA -18.9459 1.31764 49.4065
CA -40.826 -19.4171 67.4921
CA -13.5752 -21.3579 72.925
CA -14.5515 -12.9121 18.72
CA -25.9298 -19.8108 69.3727
CA -5.72013 -19.2106 46.13
CA -31.8945 -38.242 80.1845
CA -26.9822 -20.6656 46.5067
CA -35.9258 -16.7276 69.6051
CA -19.9888 -10.1357 43.9151
CA -19.3601 -22.6448 75.0342
CA -21.4696 -29.7119 89.0517
CA -20.1163 -7.30151 53.7664
CA -26.9921 -20.5467 71.9362
CA -39.9635 6.41581 51.7719
CA -20.2223 -19.1427 89.9974
CA -17.2264 -7.67188 5.92268
CA -29.0567 -44.2978 80.016
CA -48.355 -22.4144 69.8193
CA -9.54379 -22.8224 55.8048
CA -14.2249 -6.42922 9.13854
CA -37.7962 -0.302228 69.5048
CA -14.0421 -9.76 61.6953
CA -19.7513 -29.5613 14.2854
CA -37.9677 -34.2722 45.4773
CA -22.5155 -39.3233 46.6514
CA -18.3893 -23.2147 90.1727
CA -24.7363 -29.5911 54.1857
CA -34.2798 -22.6643 55.3653
CA -41.2225 -7.02087 61.09
CA -24.6482 -30.4662 16.2742
CA -41.7142 -27.0874 59.6256
CA -19.0361 -31.7189 73.5706
CA -37.4361 -8.40788 46.0915
CA -11.8974 -38.4559 27.8885
CA -27.1218 -42.2467 82.2904
CA -25.2495 -7.56271 38.7971
CA -27.0568 -20.6536 64.4353
CA -29.1051 -7.99002 61.1272
CA -29.8785 -31.9931 55.5581
CA -24.2003 -14.8888 36.4724
CA -32.4811 -28.2575 64.3454
CA -17.854 -15.3617 53.1861
CA -19.5519 -1.55471 61.5999
CA -25.1845 -31.3387 63.1707
CA -32.9659 -11.0016 51.4026
CA -30.1161 -27.2541 64.1375
CA -44.5492 -17.5379 64.2155
CA -3.8544 -24.1013 48.0534
CA -31.0985 -33.9287 74.8153
CA -22.4665 -5.93376 47.3638
CA -36.4676 -20.092 41.372
CA -28.963 -36.08 71.6972
CA -26.7973 -11.537 60.5553
CA -49.6517 -6.45465 53.7611
CA -13.8226 -31.1109 17.581
CA -19.1238 -2.36862 64.1047
CA -16.5334 -20.945 73.5402
CA -27.5655 -33.5223 71.992
CA -32.7677 -13.3603 53.3213
CA -17.844 -24.6231 65.2702
CA -43.3514 -16.7516 68.7431
CA -18.2883 -38.4676 53.7515
CA -9.84662 -31.449 17.5292
CA -38.32 -29.0087 60.2925
CA -15.6006 -30.3495 47.4723
CA -39.0813 -27.262 76.734
CA -32.269 -6.61378 56.3074
CA -35.3505 -29.2283 56.8338
CA -22.243 -32.0786 15.2172
CA -18.378 -29.2831 49.5121
CA -18.8302 -27.7192 66.2154
CA -43.9726 -21.0922 80.0536
CA -23.8455 -21.9537 34.8609
CA -30.7859 -8.31 40.5016
CA -21.6474 -23.325 36.0204
CA -43.641 -30.6829 71.6743
CA -23.3567 0.100119 53.6175
CA -45.742 -24.3457 51.7672
CA -26.3039 -32.5068 42.0414
CA -14.2257 -19.6194 20.4823
CA -48.6861 -14.4775 75.8827
CA -19.0371 -13.1431 60.6505
CA -30.0644 -15.6852 67.1631
CA -31.7498 -17.5211 47.9203
CA -34.9007 -30.5067 41.4667
CA -19.2557 -17.5742 73.4423
CA -42.1299 -8.9788 59.4851
CA -25.764 -19.9103 80.4319
CA -18.8603 -37.7601 74.2112
CA -21.4554 -21.4079 65.1989
CA -21.8887 -28.6167 64.5939
CA -1.599 -2.36148 -1.19286
CA -33.5935 -24.156 32.7223
CA -38.7488 -31.2427 48.1094
CA -25.5123 -28.9944 37.4891
CA -44.3541 -25.7138 44.3099
CA -25.6429 -12.4123 68.8219
CA -7.64923 -15.3541 69.3883
CA -18.6257 -40.5363 80.0028
CA -41.9472 -14.3879 76.1322
CA -43.4081 -8.73971 57.6935
CA -45.3797 -23.0703 45.223
CA -17.052 -31.5359 60.7028
CA -10.3021 -23.474 40.9142
CA -33.0343 -26.5245 65.4524
CA -40.0202 -19.9965 33.7411
CA -5.44928 -24.7597 49.5027
CA -28.4624 -22.2382 45.3384
CA -11.0679 -8.16306 8.27563
CA -23.2028 -11.3064 64.0515
CA -38.9842 -6.17049 68.6584
CA -11.957 -1.82163 43.4026
CA -28.9457 -22.9539 51.9194
CA -19.5658 -25.8873 67.6878
CA -23.7795 -11.6972 36.0115
CA -11.4935 -30.0951 20.8846
CA -31.5929 -42.54 56.8921
CA -22.5356 -36.3235 62.7804
CA -34.45 -5.67524 39.0536
CA -20.8601 -27.1937 73.1188
CA -27.0802 -33.8272 82.6976
CA -37.7558 -13.046 51.8074
CA -31.4544 -38.5661 66.0703
CA -8.8053 -11.8137 71.2596
CA -13.4895 -5.21048 15.1424
CA -39.5884 -30.0266 69.7258
CA -23.1828 -23.5779 88.3417
CA -19.4756 -33.0215 16.9986
CA -10.3484 -11.5678 59.709
CA -44.889 -14.9405 79.8289
CA -20.0264 -29.9924 16.0805
CA -23.5306 -2.46218 63.2512
CA -17.5266 -7.17059 12.8284
CA -10.5286 2.19023 18.8005
CA -35.926 -27.8874 38.7264
CA -8.36433 -19.9274 56.1472
CA -35.002 -12.313 64.8867
CA -9.60129 -28.2949 53.5834
CA -32.7519 -0.755433 64.2998
CA -25.1649 -25.9703 88.2487
CA -28.6181 -38.8606 47.3695
CA -11.332 -31.1342 57.1293
CA -19.4549 -0.206958 45.6335
CA -10.6395 -19.5357 17.8752
CA -22.3191 -21.3351 50.9081
CA -34.3816 -19.7575 65.6123
CA -14.5904 -35.558 15.2305
CA -30.7212 -32.4386 63.7951
CA -18.8097 -21.2465 27.9043
CA -1.49405 -15.9135 42.06
CA -37.5758 -18.1451 63.4652
CA -41.8842 -25.4112 33.8018
CA -40.764 -32.5836 68.1102
CA -13.1586 -31.1286 56.5748
CA -46.2795 -17.311 78.9014
CA -6.38489 -25.4861 41.7228
CA -45.6744 -22.5159 77.5323
CA -3.03141 -20.8957 42.7668
CA -40.2125 -31.0074 56.2132
CA -33.0994 -39.9278 81.1746
CA -20.6028 -2.4738 65.8824
CA -16.0198 -31.8451 43.975
CA -24.8409 -2.58859 39.7554
CA -20.3954 -11.3663 58.7848
CA -15.7433 -12.2026 14.0226
CA -9.7482 -5.34666 16.8135
CA -24.969 -5.75741 37.3042
CA -17.4318 -22.2895 28.8875
CA -48.211 -7.58406 52.621
CA -14.6829 -21.7161 67.9054
CA -13.7785 -19.8224 14.9443
CA -11.9604 -4.90952 22.2753
CA -20.9991 -30.7491 38.6845
CA -0.0985485 -1.93962 -0.164182
CA -18.6798 -5.1638 6.88487
CA -16.8487 -39.8769 54.4152
CA -28.6821 -38.7381 81.155
CA -28.7927 1.90808 66.87
CA -36.2055 -24.3976 46.3214
CA -39.1025 -10.884 55.1862
CA -30.8133 -13.3414 50.7586
CA -18.4917 -27.2221 48.4854
CA -30.0767 -35.8605 76.4472
CA -28.9364 -4.47341 38.0557
CA -42.7647 -24.6911 73.9218
CA -22.6615 -5.41401 52.1045
CA -25.4224 -25.2423 33.3905
CA -28.6208 -9.47755 56.5275
CA -15.2214 -21.9722 27.3975
CA -23.3332 -22.71 80.6918
CA -28.3769 -30.9431 43.0104
CA -20.2319 -17.5335 76.9471
CA -24.5212 -9.24229 37.341
CA -11.7517 -24.2448 52.065
CA -33.0983 -19.8145 63.7524
CA -52.6211 -5.51049 56.6596
CA -22.2841 -42.7112 45.6044
CA -36.9426 -15.4106 61.6534
CA -15.5592 -3.34726 9.95736
CA -22.2513 -14.6516 31.0034
CA -15.1619 -28.8191 22.3785
CA -33.7307 -17.7081 58.436
CA -19.1143 -12.4203 47.012
CA -38.661 -26.124 60.3081
CA -38.5071 -8.76983 65.6546
CA -22.2481 -16.2682 58.6846
CA -9.43564 -27.1053 17.743
CA -12.2104 -11.9046 62.5302
CA -23.8189 -15.0183 81.726
CA -19.0542 -4.31744 66.103
CA -42.1091 -28.6515 52.9734
CA -19.9634 -39.8786 76.1247
CA -23.9197 0.655684 58.7285
CA -32.836 -3.58003 62.7109
CA -41.7901 -29.9988 63.1375
CA -19.3061 -39.5047 57.968
CA -29.1559 -31.5294 35.8459
CA -4.35828 -1.03102 1.8032
CA -24.1101 -19.2698 73.0371
CA -18.3828 -11.0841 21.7571
CA -14.5426 -15.0068 56.1848
CA -19.6203 -12.8285 17.8144
CA -47.7488 -19.5408 48.7902
CA -45.6878 -15.119 71.864
CA -21.4515 -10.3861 57.3689
CA -16.8658 -15.9496 42.5276
CA -45.6461 -16.8183 66.5173
CA -15.0213 -7.00253 14.7717
CA -10.5953 -12.934 67.7291
CA -20.5933 -8.20929 38.8813
CA -29.8497 -41.2895 54.5147
CA -37.5773 -27.971 73.0781
CA -28.5015 -22.7799 49.9167
CA -28.3191 -42.2947 80.1832
CA -45.5163 -26.5799 30.1685
CA -7.3363 -21.679 37.9417
CA -33.3103 -13.4734 47.6481
CA -20.4643 -15.4406 68.3241
CA -25.1973 -3.79776 50.654
CA -24.3493 -36.1919 73.9662
CA -25.8157 -16.3496 62.1806
CA -31.6548 -32.6317 65.892
CA -15.057 -15.5659 51.4093
CA -39.1739 -22.2789 42.6103
CA -47.9539 -16.248 64.4449
CA -8.75138 -29.2916 43.0821
CA -46.504 -8.46102 51.46
CA -14.7091 -11.2907 56.9544
CA -21.611 -26.5004 15.4275
CA -41.7457 -2.24173 59.053
CA -12.2988 -7.06806 39.4036
CA -39.9453 -23.9722 43.0149
CA -28.1797 -7.96299 67.2082
CA -47.7896 -22.0059 51.5153
CA -26.0614 -26.5243 39.3299
CA -30.2094 -45.8369 76.5991
CA -24.5901 -27.3601 93.0976
CA -22.4138 -12.5855 62.5036
CA -36.6132 -21.9296 43.691
CA -16.548 -17.7237 34.4105
CA -28.6989 -41.6587 84.8345
CA -38.186 -26.4763 62.2831
CA -43.5029 -2.10084 59.8661
CA -21.4548 -17.897 91.2496
CA -26.5677 -26.8223 50.1705
CA -6.33052 -7.74522 1.61092
CA -5.77534 -10.315 58.8933
CA -19.5458 -30.7467 50.0813
CA -17.5454 -27.7191 51.3092
CA -16.1148 -27.662 89.7169
CA -20.9153 -39.9502 77.6821
CA -15.0102 -33.619 22.9957
CA -9.53221 -1.9635 45.174
CA -40.8518 4.11236 55.4374
CA -4.53069 3.57349 4.28487
CA -44.2709 -18.3163 58.0973
CA -25.3964 -7.69578 62.3646
CA -47.4095 -25.6042 75.51
CA -19.47 -36.8161 76.6455
CA -14.6542 3.16291 19.7565
CA -19.6986 -8.28703 13.2676
CA -22.6529 -39.7964 50.2264
CA -37.633 -10.4238 65.2797
CA -3.15407 -16.9153 43.0095
CA -22.8016 -22.7499 46.6049
CA -9.31445 -1.50752 24.9268
CA -15.885 -16.0642 18.9318
CA -32.6826 -10.4747 56.7094
CA -14.0782 -9.34924 59.8018
CA -36.2561 -17.5786 56.8372
CA -42.0573 -14.8967 54.8669
CA -42.2157 -13.0591 45.7581
CA -29.4888 -22.2824 40.1471
CA -22.7513 -26.6475 73.2455
CA -5.99588 -21.4504 50.6883
CA -37.3923 5.45277 72.7796
CA -8.1036 -5.02656 25.0622
CA -16.9971 -23.5607 42.8681
CA -20.9486 -2.25721 56.0556
CA -48.5621 -10.5648 73.2681
CA -18.71 -17.1383 44.2432
CA -31.7824 -23.471 47.2091
CA -34.1724 -28.7521 63.3511
CA -14.442 -23.3376 14.8155
CA -27.7495 -31.8001 45.0813
CA -13.0086 -4.9246 5.30816
CA -14.7813 -27.0932 30.4278
CA -14.1046 -2.12469 44.318
CA -17.1815 -14.589 58.6608
CA -20.2329 -32.2551 14.9196
CA -32.0017 -25.6805 82.9799
CA -27.4139 -17.4065 40.1838
CA -32.4395 -7.39025 64.7975
