489

CA -46.8054 -26.9862 71.8935
CA -50.6741 -12.3817 65.1765
CA -21.0034 -14.7611 72.1636
CA -12.7751 -18.3374 31.4019
CA -45.7003 -0.952014 53.9656
CA -21.5351 -23.4055 76.6494
CA -33.6396 -28.8172 34.2323
CA -28.4607 -19.5554 68.6735
CA -45.0011 -13.7189 75.3739
CA -28.1362 -3.50458 36.2567
CA -28.7894 -37.2019 68.8881
CA -42.127 -15.4913 49.9535
CA -24.8626 -10.0422 67.6007
CA -44.2476 -16.9467 50.7673
CA -42.456 -30.5527 45.9123
CA -12.1092 -31.8983 24.5914
CA -18.1157 -8.26946 49.3903
CA -20.4525 -39.7323 59.3888
CA -19.1474 -31.5231 43.2912
CA -46.392 -15.4814 79.0257
CA -34.2652 -30.9658 70.3452
CA -21.3043 -13.1854 54.158
CA -35.4767 -28.6118 35.0154
CA -17.5572 -6.35434 67.4613
CA -8.1725 -20.8884 37.817
CA -16.7588 -2.14176 62.5164
CA -51.3892 -11.4026 73.1447
CA -22.0267 -6.1589 7.00924
CA -23.8044 -19.3141 48.5641
CA -36.1821 -32.7365 45.8475
CA -24.0301 -40.4139 45.0502
CA -7.75426 -9.91332 16.7188
CA -21.9753 -20.5607 76.2572
CA -7.23699 -15.6911 54.258
CA -15.498 -18.5294 17.8113
CA -27.0094 -29.6137 79.1455
CA -22.4527 -13.9201 76.9746
CA -49.0661 -12.1189 60.328
CA -14.0523 -7.48058 11.5013
CA -19.1227 -33.7975 47.7585
CA -22.1803 -3.57249 51.8983
CA -25.2529 -27.8639 32.5293
CA -26.5053 -33.5006 66.3415
CA -29.0106 -13.2752 50.0489
CA -10.2554 -17.5764 60.3413
CA -30.2762 -11.2477 48.52
CA -20.9972 -36.801 23.081
CA -16.1601 -3.15469 40.504
CA -32.0412 -34.4558 43.3637
CA -43.1475 -3.54494 55.9016
CA -13.502 -4.38481 18.8425
CA -28.4322 -22.4613 61.9116
CA -47.9868 -22.3489 80.427
CA -33.4111 -26.6215 62.4811
CA -18.8802 -24.1031 38.6742
CA -10.463 -28.6648 45.7774
CA -9.09956 -5.8987 19.4332
CA -48.2413 -5.68915 56.0364
CA -34.0044 -23.8921 45.7198
CA -45.316 -7.93639 65.3904
CA -48.4515 -18.9864 69.526
CA -8.96231 -31.6028 40.0463
CA -23.5153 -22.3466 67.7077
CA -18.1146 -20.9121 77.3404
CA -37.0926 -18.2397 43.1163
CA -25.2419 -41.0687 52.8564
CA -35.5026 -3.98952 59.0517
CA -23.7727 -37.341 30.1147
CA -40.0081 -29.5879 75.1799
CA -26.8069 -18.3395 48.0639
CA -14.7629 -6.93733 38.5288
CA -41.3083 -24.7151 63.6285
CA -39.486 -11.1489 64.1408
CA -43.6716 -5.31766 60.8954
CA -11.1192 -0.814867 24.1546
CA -19.7046 -5.84586 56.5477
CA -13.5889 -9.38513 5.56201
CA -15.691 -8.72489 18.0417
CA -32.8599 -28.2818 30.2586
CA -39.1323 -12.2968 53.1176
CA -42.5172 -10.4647 53.701
CA -10.1662 -19.1857 51.4134
CA -4.83128 -18.2376 57.8083
CA -28.7881 -42.5385 73.3938
CA -33.5959 -4.30861 57.3867
CA -24.0687 1.09041 57.0769
CA -15.8973 -36.3051 60.0367
CA -34.5211 -25.6318 52.0056
CA -15.7178 -34.182 37.6572
CA -10.5313 -17.1255 55.0516
CA -33.1502 -32.1303 56.3284
CA -10.6709 -1.32926 19.1617
CA -40.0809 -9.40168 62.2988
CA -11.0401 -18.5041 41.2647
CA -28.435 -13.4405 36.4021
CA -15.6929 -21.5566 59.5671
CA -18.8492 -41.7696 81.6719
CA -45.9058 -11.4301 71.3963
CA -28.648 -28.3247 54.2002
CA -43.1949 -31.7194 47.5129
CA -22.1136 -39.0654 78.9552
CA -21.1719 -3.24626 50.2442
CA -38.0434 -29.9247 36.3725
CA -39.9 2.5801 62.9586
CA -29.2378 -19.5324 65.452
CA -12.7631 -36.33 17.0968
CA -22.6592 -25.6453 63.1432
CA -18.3275 -23.8553 16.218
CA -14.2478 -18.7249 33.4408
CA -22.6678 -27.5409 78.5833
CA -31.6138 -9.78242 66.3372
CA -30.3867 -44.4314 78.1652
CA -15.5275 -36.0144 43.9882
CA -16.117 -23.8625 27.2523
CA -37.2962 -18.8551 38.4753
CA -18.4056 -22.6026 21.5779
CA -18.3835 -10.5891 6.17593
CA -28.7702 -11.0674 64.8164
CA -4.12582 -5.65949 1.01288
CA -30.934 -28.6545 53.999
CA -37.2197 -4.72319 70.1451
CA -46.2656 -11.3452 66.6622
CA -37.3998 -25.6679 56.066
CA -38.9876 -11.0532 48.7788
CA 1.02563 -20.5381 59.5833
CA -47.7863 -28.6676 71.3416
CA -37.1286 -5.43475 65.9164
CA -24.2274 -17.7935 47.5578
CA -43.9665 -28.8549 64.3522
CA -22.0386 -14.7842 67.37
CA -17.6829 -30.2925 42.1982
CA -48.5721 -10.7672 55.8616
CA -38.3145 -18.7907 44.529
CA -25.5235 -28.3899 79.0072
CA -20.8264 -19.1006 44.8619
CA -36.4559 -14.9408 57.3701
CA -10.5971 -10.7317 17.6222
CA -44.7809 -22.4048 67.2961
CA -19.365 -6.6985 41.1316
CA -17.2515 -14.4191 20.065
CA -21.0201 -21.6646 26.1916
CA -20.4741 -38.9402 46.0168
CA -25.7103 -22.246 56.4408
CA -18.9577 -18.0077 88.2426
CA -12.522 -13.6524 54.0778
CA -21.8618 -41.928 78.4014
CA -10.1953 -24.8162 20.8805
CA -34.9898 -8.03141 54.1739
CA -19.9534 -23.4469 22.3269
CA -26.6056 -34.5778 47.4807
CA -15.6571 -24.5628 52.8031
CA -8.48044 -2.05313 5.10544
CA -41.5622 -4.39505 44.001
CA -19.8692 -25.6313 21.4074
CA -34.3985 -20.0512 32.1384
CA -17.8743 -37.688 17.2581
CA -15.5593 -37.6218 18.9498
CA -40.3913 -30.1116 71.6589
CA -39.7199 -36.4822 51.0594
CA -24.1935 -22.0483 22.7883
CA -23.3015 -16.9367 50.4057
CA -11.4071 -16.4895 58.2479
CA -41.8784 -14.4737 60.7475
CA -8.42828 -29.1766 41.5722
CA -33.7518 -24.659 34.5288
CA -19.4562 -21.4713 60.7115
CA -26.9787 -21.4572 64.2106
CA -21.4303 -18.609 82.3134
CA -35.3865 -26.9917 32.3651
CA -30.5673 -33.1471 39.7524
CA -9.5806 -23.972 39.336
CA -49.3676 -25.1931 67.5907
CA -19.859 -22.3536 59.1013
CA -39.5808 -32.026 74.4553
CA -24.9243 -39.914 48.4389
CA -15.4597 -23.2441 57.933
CA -40.826 -19.4171 67.4921
CA -13.9454 -14.6892 35.9671
CA -15.3438 -20.7054 19.2401
CA -23.9471 -4.74565 40.4689
CA -19.1761 -33.8101 29.942
CA -26.5936 -3.72637 44.8824
CA -7.28449 -34.3307 39.0406
CA -53.1806 -14.4177 68.3213
CA -25.2821 -31.697 52.5701
CA -19.3601 -22.6448 75.0342
CA -21.4696 -29.7119 89.0517
CA -31.3658 -31.2409 65.237
CA -25.3844 -33.1066 49.0182
CA -42.8581 -11.1441 67.3864
CA -20.2223 -19.1427 89.9974
CA -22.9817 -26.8843 58.2097
CA -25.1296 3.02754 65.3438
CA -19.1863 -25.4983 35.8864
CA -35.7664 -23.2158 53.0431
CA -14.2249 -6.42922 9.13854
CA -37.7962 -0.302228 69.5048
CA -40.8627 -15.489 77.3218
CA -35.3815 -33.1554 42.3338
CA -16.6326 -6.97166 65.2746
CA -22.782 -29.3902 77.8297
CA -22.0536 -35.3329 51.4578
CA -49.3859 -25.3827 71.2726
CA -6.81041 -20.1984 51.1255
CA -40.8827 -25.8659 49.4218
CA -24.6482 -30.4662 16.2742
CA -19.668 -36.5258 81.0029
CA -15.6484 -22.8533 41.1182
CA -43.9085 -15.1282 61.3363
CA -34.8007 -36.8897 65.603
CA -17.3098 -9.33781 55.0314
CA -11.6047 -32.3082 18.1227
CA -44.2405 -22.6379 54.5838
CA -38.7707 -6.85771 45.0329
CA -29.2684 -29.4233 50.5366
CA -28.5546 -40.3651 76.4002
CA -31.5855 -35.9126 73.986
CA -42.7715 -14.4159 82.7494
CA -6.73796 -29.82 37.563
CA -47.7168 -15.4905 58.5973
CA -21.0117 -37.6638 55.7008
CA -21.8618 -19.3483 69.0498
CA -44.3178 -10.5388 76.5468
CA -19.2667 -18.7499 78.5178
CA -22.1163 -23.8192 26.5262
CA -15.6366 -9.46026 60.6572
CA -33.5895 -42.1366 75.0682
CA -31.4621 -32.8309 71.6961
CA -35.9981 -33.531 64.0709
CA -48.814 -16.6069 72.2199
CA -13.8226 -31.1109 17.581
CA -38.3485 -11.8024 68.7032
CA -23.6651 -31.9211 20.3994
CA -19.7699 -27.3286 43.4645
CA -32.7677 -13.3603 53.3213
CA -50.1999 -12.6579 75.6298
CA -32.6696 -21.9864 48.1122
CA 2.22253 -22.4209 58.4021
CA -9.84662 -31.449 17.5292
CA -19.7297 -41.0654 44.0095
CA -7.2842 -20.853 42.0663
CA -27.6781 -24.4869 64.393
CA -40.9164 -11.8343 50.2864
CA -29.5156 -7.04843 44.2418
CA -22.243 -32.0786 15.2172
CA -28.6537 -40.0416 71.5239
CA -20.9022 -24.1356 70.3586
CA -43.3273 -18.4859 78.1702
CA -9.20776 -24.2081 51.6159
CA -16.4062 -9.06876 65.1729
CA -9.23939 -26.4976 45.2767
CA -43.641 -30.6829 71.6743
CA -35.2008 -21.8158 32.3086
CA -23.5396 -27.5241 23.7046
CA -20.0085 -11.1676 65.6842
CA -12.1028 -15.5759 14.3777
CA -40.4983 -0.997423 44.5638
CA -45.5608 -9.15045 57.3288
CA -15.1144 -28.7144 51.6985
CA -12.0763 -15.0605 65.5259
CA -41.93 -27.3107 73.5016
CA -13.345 -8.59119 63.2505
CA -28.1729 -33.6278 40.3171
CA -36.2082 -2.78312 52.4835
CA -18.8603 -37.7601 74.2112
CA -23.6212 -27.6138 84.7802
CA -12.9084 -9.7156 52.169
CA -1.599 -2.36148 -1.19286
CA -43.6883 -24.3561 58.3735
CA -38.7488 -31.2427 48.1094
CA -18.9464 -35.1934 35.3688
CA -50.4167 -8.9921 51.7993
CA -31.1484 -40.0135 56.5727
CA -26.7399 -20.6462 49.3867
CA -41.4065 -8.33196 53.7115
CA -41.9472 -14.3879 76.1322
CA -43.4081 -8.73971 57.6935
CA -27.8492 -36.355 83.059
CA -28.0139 -40.237 67.5023
CA -10.3021 -23.474 40.9142
CA -36.6201 5.1993 59.0348
CA -40.0202 -19.9965 33.7411
CA -32.0839 -25.6179 39.5318
CA -21.0057 -23.839 66.8113
CA -25.0043 -10.0556 35.7692
CA -29.4558 -20.0491 35.1997
CA -37.632 -5.05284 56.885
CA -19.2579 -23.7217 20.1785
CA -16.3666 -29.4758 33.6852
CA -36.0241 -21.4892 61.1788
CA -39.4281 1.16001 67.5521
CA -39.1203 -34.1464 49.7641
CA -31.5929 -42.54 56.8921
CA -27.6775 -34.269 81.9132
CA -21.472 -23.6035 33.4906
CA -21.2669 -1.31681 60.4516
CA -55.5547 -13.0464 67.9243
CA -16.1386 -33.9191 45.5398
CA -31.4544 -38.5661 66.0703
CA -27.9519 -39.6925 50.2831
CA -13.4895 -5.21048 15.1424
CA -39.5884 -30.0266 69.7258
CA -23.1828 -23.5779 88.3417
CA -19.4756 -33.0215 16.9986
CA -29.9137 -14.9286 69.1535
CA -39.0086 -31.0541 55.1981
CA -40.7825 -19.2581 75.9769
CA -28.9695 -20.0969 43.6531
CA -17.5266 -7.17059 12.8284
CA -10.5286 2.19023 18.8005
CA -35.926 -27.8874 38.7264
CA -23.7874 -18.4982 79.8185
CA -16.3184 -16.7037 29.5404
CA -33.3145 -38.2053 48.3864
CA -31.3734 -37.0156 72.5495
CA -13.3189 -31.049 23.4939
CA -28.6181 -38.8606 47.3695
CA -26.8999 -8.97872 38.5005
CA -19.4549 -0.206958 45.6335
CA -10.6395 -19.5357 17.8752
CA -16.1795 -20.1786 57.9224
CA -6.75425 -21.4537 53.4077
CA -14.5904 -35.558 15.2305
CA -36.1107 -17.7224 60.7486
CA -28.364 -34.538 69.3157
CA -11.8606 -16.9744 36.8011
CA -32.6818 -36.9065 83.6693
CA -23.616 -34.6896 57.8219
CA -30.7298 1.22273 65.5396
CA -36.5108 -34.6687 74.1253
CA -24.2331 -5.23667 35.7146
CA -26.6896 -8.29803 43.9079
CA -28.136 -24.6205 23.3484
CA -24.496 -33.4679 64.8934
CA -12.176 -25.7248 25.0256
CA -16.5587 -11.2669 21.7094
CA -26.1057 -0.302859 59.0956
CA -12.5731 -26.3032 32.1881
CA -42.8753 -20.9417 32.4009
CA -20.3954 -11.3663 58.7848
CA -32.8652 -41.5165 77.3648
CA -9.7482 -5.34666 16.8135
CA -24.969 -5.75741 37.3042
CA -24.8528 -39.6648 74.1614
CA -27.8555 -18.8374 38.9076
CA -19.4392 -19.7429 34.5411
CA -13.7785 -19.8224 14.9443
CA -35.8108 -20.0425 46.116
CA -31.1512 -40.8349 77.1394
CA -0.0985485 -1.93962 -0.164182
CA -18.6798 -5.1638 6.88487
CA -27.5028 -8.1799 66.5224
CA -28.6821 -38.7381 81.155
CA -27.8658 -26.2498 60.275
CA -20.9204 -18.5699 47.4979
CA -46.4497 -23.8975 66.2906
CA -16.6665 -11.341 54.8396
CA -23.6569 -13.7504 70.9006
CA -30.0767 -35.8605 76.4472
CA -48.4369 -12.3399 53.5078
CA -25.2679 -13.6216 60.7975
CA -19.1739 -25.8834 57.0202
CA -24.1022 -1.23113 57.8902
CA -28.6208 -9.47755 56.5275
CA -37.0435 -29.1597 65.7125
CA -23.3332 -22.71 80.6918
CA -25.1474 -13.2712 73.5321
CA -20.2319 -17.5335 76.9471
CA -21.235 -13.1756 78.7743
CA -26.2652 -32.454 59.5128
CA -25.3882 -31.0431 43.5124
CA -28.9302 -27.5219 78.3141
CA -17.9946 -21.5039 48.5209
CA -7.96266 -12.1242 64.401
CA -47.1107 -15.5722 60.4605
CA -29.374 -13.8412 67.8129
CA -13.4603 -24.8172 54.1896
CA -42.5011 -24.9711 53.602
CA -28.2474 -27.8196 41.9541
CA -28.1896 -0.0563719 62.0778
CA -21.6628 -37.9169 18.771
CA -22.2481 -16.2682 58.6846
CA -34.7253 -32.6621 50.6673
CA -30.0799 -22.3731 28.6843
CA -44.69 -14.4618 78.961
CA -22.8331 -29.1402 38.8294
CA -42.1091 -28.6515 52.9734
CA -32.6456 -24.4494 54.6049
CA -14.0613 -19.1874 58.7429
CA -32.836 -3.58003 62.7109
CA -37.9044 -13.3817 60.1849
CA -47.6683 -23.2241 56.3612
CA -38.115 -21.4495 68.0427
CA -4.35828 -1.03102 1.8032
CA -26.5987 -31.5437 48.672
CA -21.195 -37.473 74.6601
CA -22.0052 -1.46943 62.2862
CA -21.3712 -36.2193 19.4962
CA -27.4598 -44.2292 53.2277
CA -37.7642 -15.6826 39.9839
CA -12.5535 -23.372 20.4565
CA -28.2411 -20.5608 33.5397
CA -25.2665 -5.73812 46.5709
CA -15.0213 -7.00253 14.7717
CA -12.103 -20.458 58.4282
CA -20.5933 -8.20929 38.8813
CA -30.2058 -39.9586 45.6052
CA -37.5773 -27.971 73.0781
CA -23.6238 -10.1418 37.4699
CA -35.4619 0.522494 60.2015
CA -25.5072 -37.0188 50.4868
CA -24.6963 -27.6352 64.4201
CA -14.3462 -8.21596 9.54362
CA -20.4643 -15.4406 68.3241
CA -25.1973 -3.79776 50.654
CA -15.8688 -9.97137 51.4368
CA -21.7191 -32.4645 47.4122
CA -25.7105 -27.9978 82.9522
CA -14.2657 -33.1708 42.7233
CA -35.1751 -19.0792 56.3813
CA -47.1121 -24.8061 77.2636
CA -28.2993 -2.77434 45.3725
CA -33.2609 -27.5216 69.6695
CA -10.7856 -10.0836 63.5881
CA -12.2853 -35.3748 15.5646
CA -22.6635 -23.667 57.7963
CA -26.3667 -19.9012 35.9479
CA -22.5398 -22.623 23.7914
CA -45.4644 -22.0373 79.9168
CA -38.6773 -14.0803 85.9601
CA -38.8007 -4.9611 59.6095
CA -23.9008 -26.4949 86.1981
CA -45.85 -20.6551 68.3184
CA -42.1984 -29.4084 57.3662
CA -36.6132 -21.9296 43.691
CA -37.7655 -23.4052 49.4281
CA -27.738 -4.52325 58.9845
CA -32.8704 -19.2318 42.1564
CA -17.2047 -33.1913 47.5226
CA -18.3832 -16.9295 29.3288
CA -25.1938 -19.3376 41.5635
CA -6.33052 -7.74522 1.61092
CA -34.9585 -38.1967 75.5537
CA -19.5458 -30.7467 50.0813
CA -10.4578 -20.9749 38.1355
CA -27.4127 -25.7154 29.2042
CA -35.9581 -13.0833 51.9633
CA -36.2442 -0.565622 65.6017
CA -36.8075 -8.98656 67.1859
CA -14.1134 -31.3814 35.0087
CA -4.53069 3.57349 4.28487
CA -44.2709 -18.3163 58.0973
CA -39.6607 -2.7968 48.3681
CA -3.41691 -18.8011 59.9236
CA -19.47 -36.8161 76.6455
CA -9.72284 -22.3219 17.2296
CA -48.2381 -16.782 61.2323
CA -12.9667 -24.0014 47.0637
CA -37.633 -10.4238 65.2797
CA -3.15407 -16.9153 43.0095
CA -22.8016 -22.7499 46.6049
CA -23.0637 -35.4066 29.717
CA -15.885 -16.0642 18.9318
CA -29.3048 -19.1974 39.9604
CA -42.2392 -25.7482 58.3518
CA -19.6794 -18.4918 68.2131
CA -22.0188 -30.6447 59.4014
CA -29.7505 -21.5945 32.838
CA -29.4888 -22.2824 40.1471
CA -24.3461 -31.3128 49.4855
CA -43.3121 -27.0361 49.5962
CA -15.9131 -27.0145 51.7658
CA -23.966 -2.40888 60.7831
CA -15.2576 -22.9264 33.8903
CA -20.9486 -2.25721 56.0556
CA -0.825691 -23.5052 52.7415
CA -23.7888 -11.3414 40.7475
CA -35.4504 -30.371 39.6976
CA -27.2827 -44.1649 74.8796
CA -38.4494 -19.2934 31.8081
CA -16.8101 -22.3517 30.0759
CA -13.0086 -4.9246 5.30816
CA -14.7813 -27.0932 30.4278
CA -26.0065 -20.9436 73.3436
CA -4.77425 -20.7834 52.4454
CA -20.2329 -32.2551 14.9196
CA -17.9781 -14.1941 44.6554
CA -27.9521 -6.3256 50.734
CA -47.3292 -13.457 77.8889
