489

CA -46.8054 -26.9862 71.8935
CA -50.6741 -12.3817 65.1765
CA -14.8925 -32.2622 23.6297
CA -40.1107 -18.4525 65.2395
CA -19.6071 -23.6591 50.7718
CA -32.1162 -16.7097 65.1705
CA -10.5888 -8.3008 17.2293
CA -36.3214 -25.8652 31.7631
CA -45.0011 -13.7189 75.3739
CA -29.3137 -37.7812 65.018
CA -25.5655 -2.64992 60.3077
CA -38.4644 -20.321 42.7516
CA -24.8626 -10.0422 67.6007
CA -9.25673 -7.07026 63.0702
CA -20.8053 -13.2121 81.3137
CA -30.987 -10.7936 55.5217
CA -18.1157 -8.26946 49.3903
CA -38.3045 -15.637 59.0432
CA -28.466 -30.3719 23.9558
CA -46.392 -15.4814 79.0257
CA -34.2652 -30.9658 70.3452
CA -37.5688 -24.2901 51.129
CA -35.4767 -28.6118 35.0154
CA -34.7527 -43.008 74.4723
CA -8.1725 -20.8884 37.817
CA -52.4129 -16.4263 61.3845
CA -51.3892 -11.4026 73.1447
CA -22.0267 -6.1589 7.00924
CA -10.2443 -24.4853 44.789
CA -18.1998 -23.3443 59.5112
CA -34.8502 -33.0646 63.9646
CA -7.75426 -9.91332 16.7188
CA -15.1291 -15.9835 32.1337
CA -7.23699 -15.6911 54.258
CA -15.498 -18.5294 17.8113
CA -17.6331 -24.1441 51.8054
CA -20.0028 -19.1409 62.054
CA -20.2402 -31.0995 76.5306
CA -14.0523 -7.48058 11.5013
CA -19.1227 -33.7975 47.7585
CA -0.277502 -22.2018 65.625
CA -14.6493 -21.6353 38.3221
CA -29.2835 -34.9728 32.6204
CA -48.9184 -7.39801 58.8958
CA -1.16226 -17.1503 61.4715
CA -32.919 -22.6736 30.98
CA -10.902 -22.2273 39.7564
CA -32.1709 -43.2665 78.2434
CA -27.8746 -10.6879 70.603
CA -21.92 -38.314 27.3665
CA -13.502 -4.38481 18.8425
CA -28.4322 -22.4613 61.9116
CA -13.3701 -11.6991 21.3617
CA -33.4111 -26.6215 62.4811
CA -18.8802 -24.1031 38.6742
CA -27.8468 -36.9899 76.3943
CA -9.09956 -5.8987 19.4332
CA -18.4876 -17.9143 77.6786
CA -26.3838 -28.0545 54.1688
CA -45.316 -7.93639 65.3904
CA -48.4515 -18.9864 69.526
CA -42.9499 -17.0841 82.9244
CA -24.6013 -31.3472 26.777
CA -28.1221 -4.00207 46.7398
CA -37.0926 -18.2397 43.1163
CA -25.2419 -41.0687 52.8564
CA -30.8567 -4.34598 39.2642
CA -34.7874 -30.5064 72.9795
CA -40.0081 -29.5879 75.1799
CA -26.8069 -18.3395 48.0639
CA -21.2328 -42.619 74.8699
CA -41.3083 -24.7151 63.6285
CA -50.1091 -28.9423 68.5444
CA -43.6716 -5.31766 60.8954
CA -9.74761 -14.6942 50.5937
CA -9.39271 -21.8494 55.5813
CA -13.5889 -9.38513 5.56201
CA -15.691 -8.72489 18.0417
CA -32.8599 -28.2818 30.2586
CA -21.8656 -41.0107 75.9071
CA -53.0253 -3.71202 53.0403
CA -22.0817 -9.32935 39.0519
CA -4.83128 -18.2376 57.8083
CA -41.2445 -35.4618 52.6045
CA -33.5959 -4.30861 57.3867
CA -28.8074 -9.13044 37.5803
CA -12.5495 -25.679 58.1716
CA -20.5772 -23.8713 63.7296
CA -18.187 -23.3743 71.0047
CA -35.0238 -35.3289 53.9255
CA -33.1502 -32.1303 56.3284
CA -10.6709 -1.32926 19.1617
CA -51.7679 -23.9927 71.3005
CA -11.0401 -18.5041 41.2647
CA -28.435 -13.4405 36.4021
CA -16.8261 -7.91784 69.8447
CA -18.8492 -41.7696 81.6719
CA -45.9058 -11.4301 71.3963
CA -13.7242 -28.0015 25.6575
CA -43.1949 -31.7194 47.5129
CA -29.0742 -18.0827 51.1983
CA -37.8798 -25.2744 37.0988
CA -25.932 -32.0922 33.6982
CA -29.4317 -18.5292 29.5408
CA -29.2378 -19.5324 65.452
CA -12.7631 -36.33 17.0968
CA -37.7363 -22.305 70.242
CA -15.8061 -8.79829 14.7915
CA -19.1098 -10.7966 55.6193
CA -26.8472 -14.2391 73.3742
CA -23.6183 -11.1056 63.5821
CA -18.3811 -8.01841 68.0446
CA -31.6326 -13.0321 46.1363
CA -42.5286 -13.284 77.1385
CA -37.2962 -18.8551 38.4753
CA -39.2842 -19.4849 68.4732
CA -18.3835 -10.5891 6.17593
CA -28.7702 -11.0674 64.8164
CA -4.12582 -5.65949 1.01288
CA -28.1604 -5.96922 46.5847
CA -25.9605 -21.5452 62.3271
CA -46.2656 -11.3452 66.6622
CA -25.4352 -24.6811 80.4418
CA -38.9876 -11.0532 48.7788
CA 1.02563 -20.5381 59.5833
CA -20.6528 -18.5215 92.7045
CA -34.4202 -38.333 50.7995
CA -23.1099 -37.1097 66.5522
CA -16.2199 -25.4307 41.9486
CA -12.651 -8.19789 57.6973
CA -37.8664 -17.6629 46.3377
CA -5.30038 -11.2151 63.7558
CA -47.0445 -11.4635 68.9288
CA -29.5912 -3.92042 40.4895
CA -24.3088 -30.6581 24.7623
CA -24.7771 -29.6545 61.3975
CA -10.5971 -10.7317 17.6222
CA -42.991 -15.2253 75.1338
CA -22.7863 -31.0193 23.0431
CA -21.129 -35.8916 70.8212
CA -23.9451 -27.1474 75.325
CA -20.4741 -38.9402 46.0168
CA -25.7103 -22.246 56.4408
CA -18.9577 -18.0077 88.2426
CA -12.522 -13.6524 54.0778
CA -44.3834 -21.4789 66.1641
CA -38.7468 -28.0329 47.6118
CA -19.3619 -6.37275 37.2206
CA -19.9534 -23.4469 22.3269
CA -44.3827 -12.6624 76.994
CA -15.6571 -24.5628 52.8031
CA -8.48044 -2.05313 5.10544
CA -0.424135 -20.7266 63.3655
CA -19.8692 -25.6313 21.4074
CA -19.3092 -12.8049 59.3092
CA -38.9039 -14.073 65.422
CA -28.2182 -21.5447 53.8432
CA -40.3913 -30.1116 71.6589
CA -39.7199 -36.4822 51.0594
CA -24.1935 -22.0483 22.7883
CA -21.7673 -27.1785 35.202
CA -11.4071 -16.4895 58.2479
CA -41.8784 -14.4737 60.7475
CA -8.42828 -29.1766 41.5722
CA -24.068 -21.9953 43.6458
CA -29.3446 -33.5355 58.5985
CA -17.304 -16.5378 14.2114
CA -15.685 -21.1222 49.0307
CA -25.4236 -41.6193 72.1517
CA -30.5673 -33.1471 39.7524
CA -9.5806 -23.972 39.336
CA -10.4482 -10.4731 60.8908
CA -31.3179 -33.6155 54.694
CA -19.4388 -35.269 58.6341
CA -24.9243 -39.914 48.4389
CA -29.507 -16.8604 53.8606
CA -40.826 -19.4171 67.4921
CA -3.92091 -15.6305 55.7136
CA -15.3438 -20.7054 19.2401
CA -13.7237 -33.6275 34.057
CA -19.1761 -33.8101 29.942
CA -48.0709 -28.7892 74.3446
CA -19.0361 -17.6217 46.5264
CA -44.8441 -26.9485 71.857
CA -45.2508 -15.1098 50.2487
CA -13.8672 -24.0756 53.5181
CA -12.1345 -8.10029 54.2712
CA -30.5197 -32.3147 50.8904
CA -23.478 -4.52848 46.7383
CA -42.8581 -11.1441 67.3864
CA -20.2223 -19.1427 89.9974
CA -22.9817 -26.8843 58.2097
CA -24.7493 -41.9224 76.197
CA -19.1863 -25.4983 35.8864
CA -37.1329 -32.1433 55.0678
CA -14.2249 -6.42922 9.13854
CA -35.8983 -12.5586 62.2002
CA -38.0655 -15.1208 51.6219
CA -32.4023 -35.567 55.2513
CA -16.6326 -6.97166 65.2746
CA -57.1685 -5.24948 56.2512
CA -36.6491 -39.8818 72.0731
CA -22.0982 -23.863 22.1104
CA -6.81041 -20.1984 51.1255
CA -20.0363 -25.7132 74.4161
CA -24.6482 -30.4662 16.2742
CA -33.4058 1.83584 61.192
CA -40.1048 -35.0012 71.6466
CA -32.0579 -32.8647 57.6615
CA -34.8007 -36.8897 65.603
CA -17.3098 -9.33781 55.0314
CA -11.6047 -32.3082 18.1227
CA -44.2405 -22.6379 54.5838
CA -49.92 -3.79278 58.8621
CA -29.2684 -29.4233 50.5366
CA -17.0148 -31.5535 43.8375
CA -29.0568 -8.52531 50.2808
CA -42.7715 -14.4159 82.7494
CA -14.4067 -6.58013 57.5559
CA -14.6787 -29.8204 22.9217
CA -3.79962 -5.05889 4.179
CA -24.0502 -1.94709 47.6808
CA -15.4217 -19.823 36.8408
CA -47.8413 -14.2239 47.7479
CA -4.3198 -17.878 43.5868
CA -15.6366 -9.46026 60.6572
CA -40.8565 -9.40514 54.8053
CA -31.4621 -32.8309 71.6961
CA -53.9455 -5.76439 54.7362
CA -27.3632 -30.6321 30.4821
CA -13.8226 -31.1109 17.581
CA -47.8727 -15.6961 69.4139
CA -23.6651 -31.9211 20.3994
CA -28.5971 -3.10298 55.8335
CA -32.7677 -13.3603 53.3213
CA -43.219 -16.6957 61.7118
CA -32.6696 -21.9864 48.1122
CA 2.22253 -22.4209 58.4021
CA -9.84662 -31.449 17.5292
CA -46.1281 -17.4398 81.12
CA -7.2842 -20.853 42.0663
CA -21.1678 -19.2063 36.0649
CA -22.2509 -40.6387 70.759
CA -29.5156 -7.04843 44.2418
CA -22.243 -32.0786 15.2172
CA -28.6537 -40.0416 71.5239
CA -20.9022 -24.1356 70.3586
CA -19.7465 -36.9659 75.9402
CA -22.5128 -38.4977 65.3823
CA -21.1355 -21.7534 25.5091
CA -43.1068 -8.7359 66.175
CA -43.641 -30.6829 71.6743
CA -35.2008 -21.8158 32.3086
CA -23.5396 -27.5241 23.7046
CA -51.9674 -8.70049 73.1055
CA -12.1028 -15.5759 14.3777
CA -40.4983 -0.997423 44.5638
CA -45.5608 -9.15045 57.3288
CA -15.1144 -28.7144 51.6985
CA -34.5663 -0.895621 54.8404
CA -41.93 -27.3107 73.5016
CA -18.5872 -18.1727 50.4732
CA -25.9959 -17.4488 69.4097
CA -36.2082 -2.78312 52.4835
CA -39.2413 -15.4095 34.3375
CA -23.6212 -27.6138 84.7802
CA -12.9084 -9.7156 52.169
CA -1.599 -2.36148 -1.19286
CA -43.6883 -24.3561 58.3735
CA -38.7488 -31.2427 48.1094
CA -0.645168 -12.5487 54.2824
CA -36.7258 -21.7619 36.7101
CA -31.1484 -40.0135 56.5727
CA -26.7399 -20.6462 49.3867
CA -17.7053 -19.4784 67.8664
CA -51.5398 -7.44263 55.3119
CA -50.2603 -19.3595 73.9064
CA -21.9844 -13.0829 62.311
CA -48.4721 -16.4174 61.1256
CA -10.3021 -23.474 40.9142
CA -12.0203 -14.2065 19.9546
CA -40.0202 -19.9965 33.7411
CA -32.0839 -25.6179 39.5318
CA -21.0057 -23.839 66.8113
CA -25.0043 -10.0556 35.7692
CA -29.4558 -20.0491 35.1997
CA -37.632 -5.05284 56.885
CA -19.2579 -23.7217 20.1785
CA -16.3666 -29.4758 33.6852
CA -9.59289 -22.9244 53.9194
CA -24.6239 -26.3798 73.1174
CA -21.544 -11.8786 60.7821
CA -32.2824 -11.5915 53.8411
CA -27.6775 -34.269 81.9132
CA -21.472 -23.6035 33.4906
CA -36.0738 -27.8939 70.3187
CA -36.226 -19.862 35.3376
CA -16.1386 -33.9191 45.5398
CA -31.4544 -38.5661 66.0703
CA -27.9519 -39.6925 50.2831
CA -13.4895 -5.21048 15.1424
CA -31.8621 -9.4073 42.7309
CA -23.1828 -23.5779 88.3417
CA -19.4756 -33.0215 16.9986
CA -17.7306 -28.8186 58.832
CA -22.7856 -22.7046 78.2283
CA -33.2819 -35.7597 65.7358
CA -35.0593 -9.37928 51.4384
CA -17.5266 -7.17059 12.8284
CA -10.5286 2.19023 18.8005
CA -12.7358 -17.9783 58.669
CA -23.7874 -18.4982 79.8185
CA -21.4004 -10.7596 55.4269
CA -46.561 -10.6341 54.6661
CA -29.5459 -7.03758 56.1895
CA -46.6969 -28.5858 76.2429
CA -34.1694 -17.6851 39.7264
CA -26.8999 -8.97872 38.5005
CA -19.4549 -0.206958 45.6335
CA -10.6395 -19.5357 17.8752
CA -22.9402 -28.9042 83.6169
CA -33.7613 -42.6082 79.3362
CA -14.5904 -35.558 15.2305
CA -14.4708 -26.9301 55.5618
CA -28.364 -34.538 69.3157
CA -11.8606 -16.9744 36.8011
CA -26.3483 -1.094 41.8241
CA -25.4253 -32.4314 39.149
CA -30.5735 -27.0919 70.4273
CA -34.6553 -21.9455 53.8152
CA -24.2331 -5.23667 35.7146
CA -17.641 -18.6966 38.4303
CA -28.136 -24.6205 23.3484
CA -36.6981 -33.9051 48.0237
CA -37.2305 -24.2989 72.1944
CA -28.4338 -10.9808 59.3261
CA -26.1057 -0.302859 59.0956
CA -39.047 -16.0336 54.8199
CA -10.6787 -4.84643 58.8506
CA -20.3954 -11.3663 58.7848
CA -44.5334 -8.64174 53.8197
CA -9.7482 -5.34666 16.8135
CA -51.4075 -22.9304 69.5026
CA -22.7631 -39.0291 74.0851
CA -19.1798 -40.1745 76.9851
CA -19.4392 -19.7429 34.5411
CA -13.7785 -19.8224 14.9443
CA -35.8108 -20.0425 46.116
CA -38.82 -0.353308 41.4583
CA -0.0985485 -1.93962 -0.164182
CA -30.1635 -38.4231 84.6087
CA -47.3871 -18.4172 53.0763
CA -23.6805 -20.5737 79.5504
CA -27.8658 -26.2498 60.275
CA -20.9204 -18.5699 47.4979
CA -46.4497 -23.8975 66.2906
CA -19.8839 -24.6022 58.2355
CA -23.6569 -13.7504 70.9006
CA -30.0767 -35.8605 76.4472
CA -48.4369 -12.3399 53.5078
CA -25.2679 -13.6216 60.7975
CA -19.1739 -25.8834 57.0202
CA -28.0912 -42.3021 50.448
CA -30.7551 -0.617267 60.512
CA -37.0435 -29.1597 65.7125
CA -24.5362 -17.4342 45.1452
CA -25.1474 -13.2712 73.5321
CA -20.2319 -17.5335 76.9471
CA -21.235 -13.1756 78.7743
CA -38.5989 -13.0541 56.6967
CA -25.3882 -31.0431 43.5124
CA -30.424 -37.0897 62.229
CA -48.3067 -14.0091 71.0835
CA -10.9065 -7.50912 60.0473
CA -21.9445 -28.5083 36.8565
CA -29.374 -13.8412 67.8129
CA -40.2325 -32.1268 55.1206
CA -27.5697 -17.0619 72.5368
CA -28.2474 -27.8196 41.9541
CA -28.1896 -0.0563719 62.0778
CA -25.3794 -11.9884 34.7927
CA -39.6223 -35.5357 78.9786
CA -34.7253 -32.6621 50.6673
CA -20.4676 -9.3053 49.3017
CA -44.69 -14.4618 78.961
CA -6.66329 -6.34543 23.511
CA -28.4106 -26.6514 47.7103
CA -32.6456 -24.4494 54.6049
CA -26.7027 -38.7904 66.9815
CA -48.4228 -10.1703 70.0767
CA -37.9044 -13.3817 60.1849
CA -47.6683 -23.2241 56.3612
CA -19.1407 -18.8058 36.7426
CA -4.35828 -1.03102 1.8032
CA -31.6031 -30.6298 46.5983
CA -21.195 -37.473 74.6601
CA -22.0052 -1.46943 62.2862
CA -21.3712 -36.2193 19.4962
CA -18.5568 -34.9975 61.6389
CA -31.0004 -37.9021 80.8776
CA -21.488 -33.9117 29.0057
CA -37.3847 -22.2716 39.1866
CA -45.512 -5.01792 55.356
CA -15.0213 -7.00253 14.7717
CA -20.6045 -21.7291 76.8136
CA -20.5933 -8.20929 38.8813
CA -30.2058 -39.9586 45.6052
CA -23.7118 -1.2539 45.8559
CA -26.6994 -32.7832 46.5851
CA -30.9233 5.64856 60.3016
CA -25.5072 -37.0188 50.4868
CA -21.7007 -35.8461 77.4568
CA -14.3462 -8.21596 9.54362
CA -39.1107 -32.1544 49.878
CA -12.5194 -29.0777 31.9985
CA -30.1843 -13.7842 33.2944
CA -21.7191 -32.4645 47.4122
CA -13.2085 -32.3413 20.9501
CA -14.2657 -33.1708 42.7233
CA -22.5235 -9.37168 35.9393
CA -23.4494 -27.5926 35.7149
CA -50.5339 -4.42789 55.9469
CA -33.2609 -27.5216 69.6695
CA -10.7856 -10.0836 63.5881
CA -12.2853 -35.3748 15.5646
CA -34.7346 -21.3614 51.9377
CA -10.0617 -21.8752 35.1491
CA -22.5398 -22.623 23.7914
CA -26.6851 -10.0513 62.9854
CA -38.6773 -14.0803 85.9601
CA -15.9649 -13.0125 49.2577
CA -23.9008 -26.4949 86.1981
CA -38.2639 -9.66216 60.3639
CA -11.7772 -4.96303 60.5368
CA -31.0977 -18.7122 66.3146
CA -37.7655 -23.4052 49.4281
CA -27.738 -4.52325 58.9845
CA -32.8704 -19.2318 42.1564
CA -31.4325 -21.2251 32.4134
CA -41.8965 -18.59 69.7555
CA -25.1938 -19.3376 41.5635
CA -6.33052 -7.74522 1.61092
CA -16.495 -37.0104 61.7562
CA -19.5458 -30.7467 50.0813
CA -45.1391 -26.6183 54.8236
CA -17.6891 -26.4164 59.6522
CA -36.3292 -15.5576 46.1933
CA -36.2442 -0.565622 65.6017
CA -24.927 -33.603 29.6715
CA -16.2748 -33.6124 43.2382
CA -4.53069 3.57349 4.28487
CA -44.2709 -18.3163 58.0973
CA -39.6607 -2.7968 48.3681
CA -25.5689 -31.9587 23.1362
CA -20.1229 -26.7817 25.3787
CA -9.72284 -22.3219 17.2296
CA -41.6175 -28.2877 49.5706
CA -19.4287 -26.0015 69.3802
CA -37.633 -10.4238 65.2797
CA -23.6715 -21.1685 58.1223
CA -22.8016 -22.7499 46.6049
CA -15.6196 -31.7418 45.5155
CA -15.885 -16.0642 18.9318
CA -29.3048 -19.1974 39.9604
CA -42.2392 -25.7482 58.3518
CA -19.6794 -18.4918 68.2131
CA -22.0188 -30.6447 59.4014
CA -44.9412 -21.9704 68.0338
CA -29.4888 -22.2824 40.1471
CA -24.3461 -31.3128 49.4855
CA -43.3121 -27.0361 49.5962
CA -35.0556 -38.929 62.0882
CA -39.072 -7.35517 63.6968
CA -41.8147 -17.1611 80.2354
CA -20.9486 -2.25721 56.0556
CA -21.548 -7.36965 40.5103
CA -48.1003 -17.353 57.8854
CA -35.4504 -30.371 39.6976
CA -21.4731 -33.1661 79.8697
CA -20.4521 -2.91435 61.4643
CA -34.2651 -18.9493 63.4709
CA -13.0086 -4.9246 5.30816
CA -12.8484 -36.0272 33.4615
CA -5.4076 -15.4974 43.3088
CA -4.77425 -20.7834 52.4454
CA -20.2329 -32.2551 14.9196
CA -26.6624 -24.5529 50.0285
CA -39.1081 -33.8053 76.8027
CA -22.9578 -15.2894 78.9946
