489

CA -40.0986 -10.2168 82.5456
CA -25.5761 -43.7527 69.0598
CA -39.048 -17.5771 50.6722
CA -37.0369 -19.0965 72.4985
CA -47.3147 -26.153 72.08
CA -27.5706 -27.134 53.4449
CA -10.5888 -8.3008 17.2293
CA -14.9891 -10.7592 66.4199
CA -16.5971 -31.8561 71.8113
CA -30.7984 -25.5818 52.5408
CA -29.2226 -10.8063 32.982
CA -40.2612 -15.6934 76.7021
CA -19.5862 -19.6724 44.8169
CA -15.8702 -17.9311 52.4734
CA -24.6266 -26.8205 81.2238
CA -20.3369 -30.9211 74.3433
CA -30.8538 1.09993 44.0311
CA -38.3045 -15.637 59.0432
CA -37.7315 -16.7558 64.474
CA -21.5097 -16.7405 78.7382
CA -42.9797 -15.579 33.2574
CA -19.4349 -36.7328 70.829
CA -21.9674 -30.2916 72.3288
CA -34.2627 -26.2647 69.9998
CA -11.9849 -11.0572 6.00266
CA -17.8732 -28.5057 68.7011
CA -10.9548 -27.0062 18.6853
CA -22.0267 -6.1589 7.00924
CA -19.4015 -21.9971 38.6385
CA -18.1998 -23.3443 59.5112
CA -42.9176 -7.50156 55.5413
CA -29.0705 -16.1368 54.6354
CA -38.6233 -27.4361 73.9585
CA -30.907 -38.4725 50.8331
CA -15.498 -18.5294 17.8113
CA -27.6979 -34.0818 84.4995
CA -20.0028 -19.1409 62.054
CA -22.4086 -33.5886 19.0556
CA -24.0499 -28.5677 25.4601
CA -41.8911 -9.16277 51.4946
CA -30.3388 -3.1636 51.0431
CA -16.8824 -41.2033 71.1402
CA -35.0833 -35.6285 78.4434
CA -38.1875 -20.6677 73.5096
CA -31.4145 -18.5511 65.7138
CA -29.1714 -25.2871 29.2827
CA -43.467 -14.6987 79.5921
CA -28.1223 -4.41108 62.4263
CA -41.8705 -0.438446 45.9385
CA -37.2699 -17.1678 44.5829
CA -13.502 -4.38481 18.8425
CA -47.9809 -38.4611 62.7144
CA -13.3701 -11.6991 21.3617
CA -24.5106 -31.5551 75.6676
CA -43.3654 -37.9373 52.1046
CA -22.3831 -10.216 44.2005
CA -9.09956 -5.8987 19.4332
CA -35.7098 -29.3112 34.7563
CA -42.2631 -4.95207 49.5996
CA -15.1074 -27.8338 53.1973
CA -41.0662 -24.2016 62.4073
CA -12.5178 -10.4515 58.7428
CA -28.5539 -22.2756 44.3646
CA -44.9231 -36.9823 61.045
CA -45.0725 -18.648 52.9091
CA -13.8444 -18.6063 48.0958
CA -41.0707 -13.618 32.2535
CA -41.6743 -28.0085 73.5322
CA -45.0681 -13.9698 82.5531
CA -11.9167 -22.4734 44.6072
CA -26.7552 -24.7195 29.4071
CA -38.9126 -37.3792 57.5025
CA -50.1091 -28.9423 68.5444
CA -37.343 -2.85566 45.7522
CA -22.0724 -33.722 47.6308
CA -9.39271 -21.8494 55.5813
CA -24.6311 -27.7527 59.9422
CA -15.691 -8.72489 18.0417
CA -29.7226 -34.9793 56.5558
CA -21.8656 -41.0107 75.9071
CA -30.9839 -24.6523 49.9916
CA -20.7367 -24.3853 24.5204
CA -34.7344 -19.7611 60.4145
CA -32.525 -4.45676 46.6902
CA -20.9229 -15.7965 69.5431
CA -17.6641 -25.9297 31.5494
CA -46.074 -12.5848 84.7444
CA -33.0132 -4.17747 51.5968
CA -23.2819 -9.66175 38.296
CA -42.928 -37.2041 58.7542
CA -33.1079 -31.5128 84.3363
CA -10.6709 -1.32926 19.1617
CA -21.8185 -31.14 59.8038
CA -37.2519 -32.0183 53.2982
CA -41.8004 -30.382 34.5098
CA -31.0441 -0.432586 51.8508
CA -30.3471 -33.6919 86.6274
CA -24.6435 -35.3337 79.4856
CA -19.9115 -21.3031 71.1595
CA -15.308 -21.8791 32.5348
CA -0.933512 -16.5046 62.6843
CA -22.3334 -20.112 50.2913
CA -40.5684 -13.6967 30.1455
CA -19.425 -35.3983 48.4407
CA -15.6124 -8.11324 62.4196
CA -40.8897 -18.7195 78.8842
CA -29.686 -12.7961 58.4016
CA -30.0252 -7.38948 44.538
CA -32.4202 -32.1495 79.7923
CA -46.8926 -36.925 63.708
CA -24.7603 -4.77478 47.403
CA -43.765 -9.96108 70.617
CA -3.70045 -22.6361 49.4519
CA -42.5286 -13.284 77.1385
CA -43.5871 -1.86124 42.7542
CA -40.6528 -29.7917 39.0372
CA -17.1094 -8.49381 8.99445
CA -19.8539 -20.4955 81.0586
CA -4.12582 -5.65949 1.01288
CA -40.1633 -2.16203 65.3303
CA -22.1053 -17.8147 49.3228
CA -20.9826 -11.1794 55.5956
CA -34.4689 -3.00409 38.2342
CA -48.6662 -3.73692 53.5638
CA -27.533 -26.0977 39.9241
CA -28.4295 -15.9903 68.8972
CA -12.5071 -28.6692 59.6426
CA -38.2734 -20.4775 48.4167
CA -40.0131 -19.4248 45.3833
CA -25.167 -8.14917 60.7879
CA -32.1739 -14.5303 61.263
CA -28.1456 -33.6877 71.986
CA -34.2746 -3.22434 34.8781
CA -31.429 -3.10095 62.0663
CA -6.5725 -16.6095 57.278
CA -26.4985 -38.2107 46.208
CA -10.5971 -10.7317 17.6222
CA -19.4065 -13.6352 36.8876
CA -23.7228 -21.2566 34.5079
CA -29.1221 -22.7397 35.1741
CA -22.76 -17.592 30.3642
CA -0.453686 -17.0629 57.7571
CA -44.9504 -11.5252 57.133
CA -41.4792 -15.2174 31.081
CA -41.3899 -32.7031 47.915
CA -44.3834 -21.4789 66.1641
CA -23.044 -14.2305 47.2269
CA -3.7951 -12.4908 55.0078
CA -22.1623 -16.7454 52.271
CA -5.93029 -19.2182 56.5558
CA -19.8397 -10.8458 66.6179
CA -9.57677 -5.21358 4.1153
CA -47.2749 -19.7632 56.4615
CA -19.8692 -25.6313 21.4074
CA -18.6312 -33.027 14.5319
CA -24.3823 -6.00259 52.3821
CA -38.7584 -27.9737 70.4512
CA -28.3136 -24.0377 25.5462
CA -10.5537 -9.13295 65.0521
CA -24.8444 -21.496 74.619
CA -34.8066 -35.7442 53.1242
CA -11.4071 -16.4895 58.2479
CA -25.2907 -16.7954 49.8556
CA -11.6001 -8.88133 2.38138
CA -22.4646 -39.0802 70.9118
CA -12.2148 -22.7113 67.046
CA -19.2408 -6.61852 47.7904
CA -29.477 -25.1098 47.0401
CA -35.6286 -13.9521 31.1184
CA -26.6525 -1.86908 55.4072
CA -31.1854 -34.2618 51.9738
CA -32.7748 -23.6818 26.2047
CA -21.8423 -22.0563 74.4716
CA -5.67035 -13.2473 63.2643
CA -47.1249 -7.09203 57.352
CA -17.3258 -24.3901 66.3052
CA -28.4155 -23.2811 46.811
CA -33.4721 -22.8035 64.8439
CA -15.3438 -20.7054 19.2401
CA -35.5536 -3.07528 62.0414
CA -34.6921 -32.0497 55.5235
CA -46.3158 -36.3891 53.0862
CA -28.808 -21.1571 55.1096
CA -34.2485 -37.4299 65.4556
CA -20.3073 -15.6218 58.4569
CA -11.3995 -27.6231 53.9403
CA -32.7365 -7.64797 40.8151
CA -13.5022 -19.561 45.051
CA -14.8895 -24.9479 40.6934
CA -26.9065 -25.179 43.2204
CA -45.7144 -24.2482 76.9189
CA -19.5013 -40.9341 69.9242
CA -16.3447 -38.6597 73.6917
CA -39.5496 -24.9691 57.5402
CA -27.3127 -34.5557 31.5881
CA -42.2531 -20.123 27.669
CA -19.9971 -7.47473 34.3384
CA -25.3534 -26.8966 52.1958
CA -45.4541 -26.5349 74.0043
CA -31.9166 -32.7761 66.0088
CA -22.0334 -45.1726 72.3894
CA -48.5903 -31.6133 65.318
CA -22.9236 -31.2275 70.4439
CA -39.0101 -32.8629 46.2031
CA -25.0801 -37.9934 78.6507
CA -24.6482 -30.4662 16.2742
CA -27.3116 -20.786 57.7589
CA -37.6909 -28.8545 49.0338
CA -26.8351 -18.8651 35.757
CA -47.0108 -16.7475 53.4688
CA -41.5593 -20.0311 44.6763
CA -11.6047 -32.3082 18.1227
CA -39.2372 -17.1538 55.5163
CA -24.2892 -11.9761 67.5047
CA -21.1464 -25.2179 40.4715
CA -39.2336 -28.178 47.3509
CA -19.9392 -24.7649 77.9576
CA -10.9413 -25.6231 25.1762
CA -22.8384 -20.8763 78.0264
CA -44.6375 -29.6682 51.5462
CA -13.3383 -11.5496 65.0846
CA -22.8522 -10.9217 36.9062
CA -26.9477 -19.5332 41.3501
CA -41.7652 -13.1011 81.9084
CA -34.8167 -25.9899 44.8424
CA -27.9072 -37.2452 67.6715
CA -37.1574 -16.7847 82.2171
CA -22.7957 -36.3695 45.3513
CA -33.9113 -16.7617 47.8424
CA -26.1557 -29.2742 61.749
CA -13.8226 -31.1109 17.581
CA -34.0921 -33.2574 76.4222
CA -23.6651 -31.9211 20.3994
CA -15.5632 -29.588 53.3879
CA -18.2705 -15.1705 69.0462
CA -43.641 -33.8894 34.6575
CA -28.326 -21.3952 62.8627
CA -21.8923 -21.2237 35.6925
CA -19.5761 -13.9896 14.8839
CA -39.6213 -11.7889 51.2894
CA -7.2842 -20.853 42.0663
CA -40.8732 -32.4434 69.8156
CA -14.5021 -25.8329 57.9227
CA -16.7543 -14.9111 48.6851
CA -22.243 -32.0786 15.2172
CA -36.7963 -35.772 74.175
CA -45.0816 -38.9233 56.9649
CA -18.1789 -11.3635 46.7885
CA -43.419 -9.82871 47.237
CA -33.9548 -5.23121 37.7263
CA -24.268 -30.5699 41.3812
CA -4.84467 -22.6997 52.2765
CA -38.5531 -19.1484 49.6851
CA -45.6528 -31.585 64.6167
CA -17.832 -31.6992 49.2367
CA -11.7221 -6.71258 54.8312
CA -25.3258 -5.59331 49.9354
CA -8.6384 -6.38391 15.4006
CA -28.6899 -9.96707 36.3276
CA -11.342 -28.4552 21.7779
CA -50.3439 -29.6537 59.0975
CA -41.4171 -13.2549 66.4403
CA -31.9735 1.62632 40.427
CA -37.2503 -23.196 59.7534
CA -35.7747 -19.7748 44.4708
CA -21.3009 -21.5407 83.8764
CA -21.4502 -3.03634 41.5353
CA -1.599 -2.36148 -1.19286
CA -36.4553 -18.843 40.2049
CA -15.8939 -25.1648 56.6218
CA -40.4245 -13.1841 60.9212
CA -40.2724 -16.327 43.85
CA -14.753 -7.28058 48.3978
CA -26.0061 -3.32367 7.48297
CA -27.8707 -39.6893 78.4166
CA -36.7079 -26.5203 45.7278
CA -34.5576 -20.0533 33.1926
CA -20.013 -25.8052 69.913
CA -4.30138 -21.8326 57.9642
CA -33.096 -23.2557 56.2503
CA -20.3724 -32.1513 18.4431
CA -17.279 -9.69822 58.8365
CA -44.3574 -34.1949 37.1682
CA -44.882 -12.489 72.8797
CA -48.9954 -23.7463 54.164
CA -21.9949 -19.2391 83.9011
CA -38.681 -36.7391 76.9758
CA -19.2579 -23.7217 20.1785
CA -40.3517 -34.0807 39.579
CA -13.1808 -14.9789 46.4588
CA -15.4963 -2.03793 18.478
CA -19.9113 -37.6781 22.1126
CA -32.2824 -11.5915 53.8411
CA -12.9851 -21.3153 40.3605
CA -36.3823 -3.74265 43.2889
CA -37.0252 -24.6574 57.9693
CA -41.5374 -21.3097 64.8505
CA -16.2835 -29.6059 72.0917
CA -29.3127 -9.13224 39.0485
CA -14.9781 -24.7095 44.0331
CA -13.4895 -5.21048 15.1424
CA -30.0963 -14.3512 64.4803
CA -30.0345 -22.8817 68.4277
CA -19.4756 -33.0215 16.9986
CA -38.9605 -13.656 35.9059
CA -46.4858 -40.5715 52.1785
CA -38.9588 -12.1639 55.7178
CA -20.4121 -35.4236 52.0503
CA -25.8863 -35.2985 65.7298
CA -38.4573 -35.6758 44.891
CA -20.0622 -11.5945 68.3364
CA -48.805 -15.991 68.2001
CA -47.3192 -22.8713 62.3817
CA -42.2859 -35.6945 40.5768
CA -32.4073 5.41804 38.3733
CA -29.1882 -32.258 87.6289
CA -28.2611 -16.5649 49.4397
CA -36.4498 -37.3459 49.286
CA -14.7044 -27.6843 58.4183
CA -10.6395 -19.5357 17.8752
CA -2.02684 -16.5632 59.6306
CA -2.85222 -13.7985 59.6738
CA -14.5904 -35.558 15.2305
CA -28.4689 -3.19739 35.8806
CA -19.8243 -13.3568 57.3658
CA -47.7045 -36.2558 66.7814
CA -12.5579 -6.83594 62.6716
CA -25.4253 -32.4314 39.149
CA -17.694 -16.0772 84.1974
CA -35.3148 -29.3136 72.4602
CA -24.2331 -5.23667 35.7146
CA -20.2662 -25.5314 28.3985
CA -32.9045 -27.6139 69.8658
CA -36.4561 -9.92975 58.14
CA -40.4614 -19.9392 49.2748
CA -40.8566 -20.6552 60.298
CA -30.779 -14.4038 59.5358
CA -30.6539 -27.6403 26.2457
CA -23.4594 -33.2904 52.0731
CA -26.1242 -19.2822 30.9403
CA -21.5884 -25.4175 55.4248
CA -9.7482 -5.34666 16.8135
CA -22.2326 -18.8849 45.4422
CA -34.5296 -17.6611 35.0836
CA -24.6053 -23.2498 61.2894
CA -35.1917 -25.9889 55.3591
CA -13.7785 -19.8224 14.9443
CA -15.8127 -10.1217 23.9488
CA -36.8368 -33.7241 60.8318
CA -0.0985485 -1.93962 -0.164182
CA -20.9694 -25.2621 87.1628
CA -14.5703 -33.8259 47.7201
CA -13.1965 -8.48243 61.0499
CA -28.5937 -28.1412 51.8991
CA -42.5684 -29.2942 48.5925
CA -13.9873 -17.4573 68.3251
CA -5.78511 -21.075 54.228
CA -15.0875 -13.4509 53.5334
CA -30.0767 -35.8605 76.4472
CA -18.5958 -30.6805 29.1602
CA -40.3804 -16.3853 83.0349
CA -46.9076 -14.1893 65.1345
CA -39.4438 -34.5031 60.8106
CA -41.4437 -39.2631 58.5948
CA -16.7949 -36.8492 66.0914
CA -27.296 -6.86763 33.6557
CA -27.1648 -7.66937 53.8485
CA -13.1331 -23.076 63.147
CA -24.0853 -27.4243 77.4821
CA -50.2391 -18.4478 66.8065
CA -14.612 -13.8822 56.8128
CA -26.8662 -26.2799 80.1752
CA -46.0135 -10.6803 45.3578
CA -24.5553 -33.5032 35.691
CA -47.7363 -7.81617 62.6627
CA -13.3791 -25.2352 24.204
CA -13.6469 -16.6449 52.4587
CA -28.3214 -4.70137 52.044
CA -26.6993 -15.3545 69.0645
CA -43.5076 -31.2638 51.7524
CA -18.8258 -21.5204 31.1505
CA -38.5139 -14.6875 68.1679
CA -31.1177 -28.469 78.2063
CA -11.9029 -25.9712 20.0563
CA -41.4268 -36.949 42.6232
CA -25.5428 -20.507 63.6098
CA -24.882 -10.865 34.8541
CA -29.7704 -0.71054 44.7962
CA -46.9641 -28.3143 53.4463
CA -15.4855 -36.1007 18.9849
CA -44.628 -4.60679 59.3036
CA -42.2423 -9.77904 48.9107
CA -16.3854 -22.0833 22.891
CA -4.35828 -1.03102 1.8032
CA -31.7072 -21.1995 32.9548
CA -27.7919 -5.29008 57.2001
CA -17.0729 -18.1515 14.6349
CA -21.3712 -36.2193 19.4962
CA -43.9541 -11.5892 83.0359
CA -10.6376 -32.1642 39.2062
CA -32.1064 -26.779 41.5889
CA -41.7291 -35.8024 53.7267
CA -45.512 -5.01792 55.356
CA -15.0213 -7.00253 14.7717
CA -28.2314 -37.6999 74.2403
CA -33.7239 -13.3505 37.5441
CA -38.8107 -32.2605 76.0515
CA -21.9794 -10.8823 6.85786
CA -35.8616 -1.26743 62.6084
CA -31.3977 -15.3028 53.6563
CA -32.2493 -22.3595 43.6681
CA -11.3657 -31.6918 55.5062
CA -14.3462 -8.21596 9.54362
CA -34.2451 -26.8138 43.3208
CA -32.7784 -36.777 82.4367
CA -20.288 -7.2632 39.6107
CA -48.0671 -11.6385 61.8543
CA -13.2085 -32.3413 20.9501
CA -26.794 -21.2969 72.6454
CA -19.3428 -10.8317 25.3974
CA -24.7586 -22.1376 37.4645
CA -32.4576 -26.9375 52.5712
CA -26.174 -7.09608 55.3777
CA -37.5915 -27.1498 40.659
CA -12.2853 -35.3748 15.5646
CA -45.4245 -10.4112 63.7916
CA -28.8914 -46.0607 67.6099
CA -14.7702 -27.285 55.0085
CA -21.9055 -11.8615 66.1468
CA -30.1052 -10.9814 61.2871
CA -29.6367 -36.7844 68.1493
CA -33.714 -39.1954 77.3905
CA -21.4981 -35.7399 48.1291
CA -48.8581 -16.942 65.1985
CA -20.2122 -10.3409 41.2283
CA -33.9292 -8.9089 34.5924
CA -27.738 -4.52325 58.9845
CA -48.6174 -6.14691 55.8714
CA -42.1392 -27.433 55.2693
CA -41.8965 -18.59 69.7555
CA -12.8042 -20.3542 50.1338
CA -6.12536 -4.22484 0.960991
CA -14.738 -23.9499 30.4351
CA -19.5458 -30.7467 50.0813
CA -38.4124 -31.1748 37.7733
CA -43.6121 -28.6244 59.9525
CA -38.6745 -29.3399 45.8455
CA -40.7117 -17.0907 30.9587
CA -30.1347 -24.1404 30.2968
CA -40.2562 -15.5672 74.6269
CA -4.53069 3.57349 4.28487
CA -44.2709 -18.3163 58.0973
CA -14.9906 -13.3485 67.1976
CA -45.8319 -5.86189 52.6465
CA -24.0897 -28.8099 72.5611
CA -9.72284 -22.3219 17.2296
CA -30.8171 -37.3646 79.2112
CA -52.8668 -12.239 59.5222
CA -3.60118 -19.4637 57.8905
CA -23.6715 -21.1685 58.1223
CA -13.3179 -9.57925 3.73996
CA -45.5221 -32.1042 52.3184
CA -15.885 -16.0642 18.9318
CA -12.7875 -29.9152 42.9203
CA -16.0699 -21.0406 64.8688
CA -46.3571 -29.5579 57.0532
CA -46.356 -33.1828 39.6683
CA -35.294 -19.795 68.586
CA -25.2699 -20.1152 37.2131
CA -17.4041 -30.7654 46.5019
CA -19.6175 -17.9358 19.0426
CA -11.1694 -9.91259 4.51626
CA -15.9482 -26.3143 27.4439
CA -41.8147 -17.1611 80.2354
CA -22.2923 -31.8586 34.1202
CA -26.7133 -28.0741 47.4347
CA -33.6695 -20.7873 69.7325
CA -22.4507 -13.8353 44.7576
CA -31.3888 -19.1665 73.7911
CA -20.3779 -22.4041 47.512
CA -34.2651 -18.9493 63.4709
CA -13.0086 -4.9246 5.30816
CA -43.1742 -21.9283 62.6205
CA -26.0369 -26.503 26.0214
CA -8.64544 -24.4726 52.2033
CA -20.2329 -32.2551 14.9196
CA -2.67879 -11.834 59.0235
CA -32.4752 -33.0445 50.979
CA -22.6353 -21.8981 27.55
