489

CA -18.1813 -35.9798 14.4002
CA -25.5761 -43.7527 69.0598
CA -39.048 -17.5771 50.6722
CA -37.0369 -19.0965 72.4985
CA -47.3147 -26.153 72.08
CA -14.4902 -30.7618 54.908
CA -10.5888 -8.3008 17.2293
CA -14.9891 -10.7592 66.4199
CA -16.5971 -31.8561 71.8113
CA -25.9951 -29.6733 56.7173
CA -38.992 -13.3431 64.304
CA -36.3973 -35.3172 42.2002
CA -19.5862 -19.6724 44.8169
CA -17.3104 -16.9507 72.4057
CA -43.8406 -19.098 74.9575
CA -20.3369 -30.9211 74.3433
CA -16.8526 -16.3728 69.9818
CA -38.3045 -15.637 59.0432
CA -37.7315 -16.7558 64.474
CA -28.7509 -17.259 35.9382
CA -26.226 -16.2918 29.0946
CA -27.2634 -25.9908 38.0321
CA -36.3921 -27.4027 56.7129
CA -31.0935 -10.134 80.8375
CA -11.9849 -11.0572 6.00266
CA -51.7398 -34.2257 59.8106
CA -32.4707 -14.353 79.3497
CA -22.0267 -6.1589 7.00924
CA -19.4015 -21.9971 38.6385
CA -18.1998 -23.3443 59.5112
CA -42.9176 -7.50156 55.5413
CA -30.01 -26.2637 49.6517
CA -41.2186 -33.6549 61.8737
CA -18.1686 -30.333 57.2406
CA -15.498 -18.5294 17.8113
CA -25.6235 -33.7652 31.7059
CA -20.0028 -19.1409 62.054
CA -12.9198 -15.066 18.134
CA -24.0499 -28.5677 25.4601
CA -41.8911 -9.16277 51.4946
CA -42.389 -37.8896 62.407
CA -35.8882 -31.0312 84.623
CA -24.7869 -8.28333 52.1708
CA -18.9428 -19.9667 42.9271
CA -31.4145 -18.5511 65.7138
CA -29.1714 -25.2871 29.2827
CA -32.0242 -1.8777 48.2308
CA -42.5259 -13.0594 49.7955
CA -41.8705 -0.438446 45.9385
CA -37.2699 -17.1678 44.5829
CA -13.502 -4.38481 18.8425
CA -18.6818 -23.6374 47.8987
CA -41.4685 -17.5364 82.0871
CA -39.7747 -3.13272 43.0612
CA -42.3169 -3.89859 56.2934
CA -22.3831 -10.216 44.2005
CA -9.09956 -5.8987 19.4332
CA -35.7098 -29.3112 34.7563
CA -42.2631 -4.95207 49.5996
CA -24.5156 -11.171 63.5743
CA -29.9074 -12.5189 55.8569
CA -10.2984 -17.9007 67.4561
CA -28.5539 -22.2756 44.3646
CA -34.3077 -13.1524 81.7798
CA -39.2035 -14.9869 67.7682
CA -7.47952 -13.3213 16.5456
CA -53.1887 -31.5138 56.0721
CA -31.8032 -3.06071 39.5539
CA -45.0681 -13.9698 82.5531
CA -11.9167 -22.4734 44.6072
CA -26.7552 -24.7195 29.4071
CA -38.9126 -37.3792 57.5025
CA -17.2937 -12.8671 21.9802
CA -49.1857 -9.85179 57.9496
CA -20.0818 -6.36274 36.4833
CA -23.3541 -23.8891 69.1074
CA -24.8452 -3.8204 46.2876
CA -15.691 -8.72489 18.0417
CA -43.5361 -14.8225 35.4155
CA -47.5052 -29.7937 73.204
CA -30.9839 -24.6523 49.9916
CA -26.6686 -12.8706 58.9232
CA -35.9121 -18.0978 59.4462
CA -31.3315 -7.50041 37.8615
CA -20.7499 -21.7102 82.6004
CA -33.0654 -26.4645 36.4497
CA -12.8573 -29.26 24.2698
CA -30.4225 -40.2308 47.1949
CA -23.2819 -9.66175 38.296
CA -49.4857 -32.9098 59.2164
CA -33.1079 -31.5128 84.3363
CA -10.6709 -1.32926 19.1617
CA -21.8185 -31.14 59.8038
CA -42.1014 -38.1658 60.204
CA -35.0699 -19.4509 36.014
CA -41.1989 -34.6456 65.2995
CA -28.7861 -40.3662 74.6771
CA -24.6435 -35.3337 79.4856
CA -15.7394 -29.4334 48.7825
CA -11.8468 -15.0497 52.7563
CA -30.1415 -13.363 50.3293
CA -16.9625 -15.9018 42.8172
CA -23.0391 -7.83469 47.0747
CA -25.9637 -3.40921 62.8633
CA -12.6261 -4.98967 54.7813
CA -28.0392 -44.6648 75.5848
CA -29.686 -12.7961 58.4016
CA -13.8412 -16.5165 69.0775
CA -32.4202 -32.1495 79.7923
CA -9.71196 -6.40861 54.5706
CA -12.0714 -29.3523 45.0688
CA -48.4502 -35.4759 67.678
CA -37.6543 -21.0197 53.9748
CA -42.5286 -13.284 77.1385
CA -43.5871 -1.86124 42.7542
CA -45.9162 -17.8443 66.0609
CA -17.1094 -8.49381 8.99445
CA -39.1827 -8.41647 48.2075
CA -4.12582 -5.65949 1.01288
CA -38.2689 -23.132 40.6171
CA -22.1053 -17.8147 49.3228
CA -20.9826 -11.1794 55.5956
CA -34.4689 -3.00409 38.2342
CA -35.0249 -17.9902 37.187
CA -27.533 -26.0977 39.9241
CA -37.8726 -29.6952 79.7414
CA -34.5237 -31.6411 80.7431
CA -44.3879 -30.4134 62.8611
CA -40.0131 -19.4248 45.3833
CA -17.3196 -20.4424 22.7038
CA -27.6236 -16.9151 47.2646
CA -25.6989 -33.8748 47.4059
CA -37.3391 -2.66339 58.4803
CA -27.7221 -9.48598 58.5458
CA -6.5725 -16.6095 57.278
CA -26.4985 -38.2107 46.208
CA -10.5971 -10.7317 17.6222
CA -19.4065 -13.6352 36.8876
CA -30.1948 -7.46472 36.0399
CA -20.2424 -1.81557 44.574
CA -22.76 -17.592 30.3642
CA -34.5694 -10.8435 35.2241
CA -41.9548 -28.5401 53.0858
CA -42.3371 0.709192 49.0787
CA -14.4128 -23.3536 24.4385
CA -19.0698 -13.2452 56.9905
CA -23.044 -14.2305 47.2269
CA -3.7951 -12.4908 55.0078
CA -22.1623 -16.7454 52.271
CA -23.3727 -29.5361 79.2519
CA -25.2417 -5.74539 47.9592
CA -9.57677 -5.21358 4.1153
CA -34.7958 -28.1186 58.2649
CA -15.4268 -6.08523 56.6337
CA -24.3513 -0.737301 43.9689
CA -24.3823 -6.00259 52.3821
CA -28.9619 -21.1042 57.0124
CA -28.3136 -24.0377 25.5462
CA -29.3051 -31.1295 50.72
CA -49.5433 -6.73447 51.7655
CA -45.125 -35.6111 64.4733
CA -43.9362 -12.9433 72.9199
CA -25.2907 -16.7954 49.8556
CA -11.6001 -8.88133 2.38138
CA -25.7738 -26.7383 21.9139
CA -12.2148 -22.7113 67.046
CA -35.3516 -27.1809 28.6507
CA -35.7494 -20.7152 63.7369
CA -44.2039 -18.3741 51.7973
CA -33.8109 -21.6597 62.8327
CA -21.4881 -8.94519 35.4003
CA -18.7045 -34.1062 24.3464
CA -1.28422 -13.0041 63.1318
CA -20.8311 -29.6102 46.994
CA -14.4207 -10.9769 62.0076
CA -20.4063 -3.93058 43.7663
CA -30.0542 -36.5949 49.9159
CA -33.4721 -22.8035 64.8439
CA -15.3438 -20.7054 19.2401
CA -25.98 -24.9705 27.7593
CA -34.6921 -32.0497 55.5235
CA -46.3158 -36.3891 53.0862
CA -28.9189 -15.0161 60.3705
CA -18.1866 -17.555 38.7418
CA -20.3073 -15.6218 58.4569
CA -11.3995 -27.6231 53.9403
CA -17.8969 -12.2391 69.738
CA -13.5022 -19.561 45.051
CA -14.8895 -24.9479 40.6934
CA -35.9045 -40.1461 57.0105
CA -45.7144 -24.2482 76.9189
CA -19.5013 -40.9341 69.9242
CA -21.0602 -9.25547 32.229
CA -39.5496 -24.9691 57.5402
CA -8.54974 -17.8441 17.849
CA -28.8897 -36.1213 46.9305
CA -19.9971 -7.47473 34.3384
CA -39.4618 -24.0985 60.5491
CA -36.9993 -28.9915 25.817
CA -42.0103 -10.7084 76.9111
CA -22.0334 -45.1726 72.3894
CA -20.9188 -8.23387 37.1556
CA -22.9236 -31.2275 70.4439
CA -35.7001 -4.90221 47.5785
CA -25.0801 -37.9934 78.6507
CA -24.6482 -30.4662 16.2742
CA -27.3116 -20.786 57.7589
CA -37.6909 -28.8545 49.0338
CA -34.0919 -24.6408 41.9443
CA -47.0108 -16.7475 53.4688
CA -34.2915 -28.7658 75.6423
CA -11.6047 -32.3082 18.1227
CA -39.2372 -17.1538 55.5163
CA -24.2892 -11.9761 67.5047
CA -21.1464 -25.2179 40.4715
CA -43.5247 -33.5392 40.9374
CA -19.9392 -24.7649 77.9576
CA -46.8907 -34.6671 43.0549
CA -22.8384 -20.8763 78.0264
CA -34.4895 -29.3871 70.4168
CA -38.1317 -11.4108 85.3699
CA -16.5848 -32.3968 28.1308
CA -26.9477 -19.5332 41.3501
CA -32.6595 -24.7534 32.0141
CA -34.8167 -25.9899 44.8424
CA -25.6253 -25.9089 60.7134
CA -37.1574 -16.7847 82.2171
CA -44.0917 -25.8387 57.6354
CA -33.9113 -16.7617 47.8424
CA -26.1557 -29.2742 61.749
CA -13.8226 -31.1109 17.581
CA -34.2146 -32.9307 76.4838
CA -26.3695 -20.2132 60.7665
CA -15.5632 -29.588 53.3879
CA -11.0211 -11.2375 4.46823
CA -37.978 -26.4526 43.7883
CA -37.1353 -35.1879 87.086
CA -21.8923 -21.2237 35.6925
CA -19.5761 -13.9896 14.8839
CA -23.0925 -3.09767 61.2792
CA -7.2842 -20.853 42.0663
CA -46.4708 -23.6297 66.7681
CA -14.5021 -25.8329 57.9227
CA -21.1858 -25.9308 68.4652
CA -22.243 -32.0786 15.2172
CA -36.7963 -35.772 74.175
CA -24.8781 -9.43262 57.9454
CA -18.1789 -11.3635 46.7885
CA -32.7955 -15.9691 61.9302
CA -12.8278 -32.1577 48.282
CA -24.268 -30.5699 41.3812
CA -4.84467 -22.6997 52.2765
CA -42.191 -16.5213 63.9643
CA -45.6528 -31.585 64.6167
CA -48.8958 -15.7344 75.4132
CA -29.0616 -29.0172 54.0369
CA -25.3258 -5.59331 49.9354
CA -8.6384 -6.38391 15.4006
CA -35.9139 -30.7005 45.1262
CA -11.342 -28.4552 21.7779
CA -50.3439 -29.6537 59.0975
CA -41.4171 -13.2549 66.4403
CA -33.6911 -28.9088 34.7915
CA -41.1536 -30.9311 42.8184
CA -37.6288 -24.1634 42.024
CA -24.5785 -30.9147 25.6787
CA -38.8018 -38.0898 60.2152
CA -1.599 -2.36148 -1.19286
CA -36.4553 -18.843 40.2049
CA -16.7399 -35.1252 68.5219
CA -40.4245 -13.1841 60.9212
CA -40.2724 -16.327 43.85
CA -50.3269 -9.34209 43.5572
CA -26.0061 -3.32367 7.48297
CA -27.8707 -39.6893 78.4166
CA -42.7294 -9.69237 81.4873
CA -49.4847 -16.6899 53.4128
CA -41.018 -9.11365 61.4742
CA -4.16262 -13.2471 58.1691
CA -18.7934 -30.5152 32.6029
CA -20.3724 -32.1513 18.4431
CA -17.279 -9.69822 58.8365
CA -26.1271 -38.0273 74.7645
CA -35.0978 -39.6041 49.9619
CA -24.3854 -21.5418 50.6779
CA -14.5866 -26.1168 29.4809
CA -14.3305 -11.0067 6.94336
CA -13.4734 -26.881 26.6803
CA -46.6194 -35.508 58.7907
CA -9.29793 -29.6773 48.8782
CA -18.7657 -28.9491 75.8107
CA -24.3168 -6.99741 61.8449
CA -32.2824 -11.5915 53.8411
CA -25.8491 -23.3251 83.8281
CA -26.2817 -5.04507 56.3267
CA -24.2702 -18.555 35.666
CA -41.5374 -21.3097 64.8505
CA -16.2835 -29.6059 72.0917
CA -22.1796 -20.0971 62.072
CA -28.5345 -37.2769 72.0104
CA -6.94836 -11.3637 17.5414
CA -30.0963 -14.3512 64.4803
CA -21.9492 -37.4694 79.5466
CA -19.4756 -33.0215 16.9986
CA -38.9605 -13.656 35.9059
CA -17.0753 -15.9594 66.9893
CA -38.9588 -12.1639 55.7178
CA -31.5314 -0.997856 46.7008
CA -39.2941 -10.7269 53.1638
CA -52.1291 -17.1384 70.1005
CA -20.0622 -11.5945 68.3364
CA -36.8251 -3.68654 45.5204
CA -35.5033 -34.1246 56.0634
CA -42.2859 -35.6945 40.5768
CA -19.6005 -32.7894 72.1069
CA -29.1882 -32.258 87.6289
CA -43.3002 -14.8769 82.7969
CA -38.7366 -30.5377 50.3402
CA -14.7044 -27.6843 58.4183
CA -10.6395 -19.5357 17.8752
CA -42.2914 -15.241 85.452
CA -2.85222 -13.7985 59.6738
CA -14.5904 -35.558 15.2305
CA -28.4689 -3.19739 35.8806
CA -44.0519 -14.7176 77.4051
CA -25.5773 -41.0874 41.6783
CA -12.5579 -6.83594 62.6716
CA -39.2186 -33.1251 50.6358
CA -5.92236 -19.2997 56.264
CA -35.3148 -29.3136 72.4602
CA -24.2331 -5.23667 35.7146
CA -39.5565 -36.1385 50.9496
CA -28.5804 -13.2688 65.0552
CA -41.2962 -21.2194 75.0702
CA -40.4614 -19.9392 49.2748
CA -26.8109 -8.40027 32.3403
CA -33.1399 -32.3587 78.1158
CA -14.3439 -17.0067 46.6546
CA -6.55823 -13.2658 59.2734
CA -26.1242 -19.2822 30.9403
CA -19.0192 -27.6243 30.647
CA -9.7482 -5.34666 16.8135
CA -47.8734 -8.5463 44.3578
CA -34.5296 -17.6611 35.0836
CA -29.004 -7.48694 45.4602
CA -20.5663 -19.9342 35.6575
CA -13.7785 -19.8224 14.9443
CA -15.8127 -10.1217 23.9488
CA -19.2019 -31.613 35.4794
CA -0.0985485 -1.93962 -0.164182
CA -20.9694 -25.2621 87.1628
CA -17.1084 -19.3992 67.2137
CA -13.1965 -8.48243 61.0499
CA -28.5937 -28.1412 51.8991
CA -49.9815 -20.097 62.2791
CA -15.5097 -18.9886 58.4299
CA -21.6409 -5.5481 41.8134
CA -31.3857 -9.93554 40.8228
CA -30.0767 -35.8605 76.4472
CA -18.5958 -30.6805 29.1602
CA -23.3235 -22.9417 53.1146
CA -32.4565 -17.8 56.6356
CA -20.3035 -28.8568 55.8135
CA -40.4765 -37.6645 89.7088
CA -16.7949 -36.8492 66.0914
CA -27.296 -6.86763 33.6557
CA -26.541 -3.97702 58.9194
CA -13.1331 -23.076 63.147
CA -24.0853 -27.4243 77.4821
CA -50.2391 -18.4478 66.8065
CA -6.76794 -8.99308 56.5102
CA -18.5586 -18.5994 13.4472
CA -46.0135 -10.6803 45.3578
CA -24.5553 -33.5032 35.691
CA -22.9978 -28.5444 17.407
CA -50.6665 -23.1357 65.5721
CA -24.5833 -21.6961 78.6447
CA -34.4536 -37.9634 48.9041
CA -26.6993 -15.3545 69.0645
CA -16.9605 -30.5202 25.9603
CA -26.9052 -33.4511 81.5334
CA -36.1891 -26.8008 39.816
CA -40.712 -29.5401 51.2397
CA -11.9029 -25.9712 20.0563
CA -41.4268 -36.949 42.6232
CA -25.5428 -20.507 63.6098
CA -20.4391 -25.9439 49.9729
CA -29.7704 -0.71054 44.7962
CA -48.198 -8.11888 46.7753
CA -15.4855 -36.1007 18.9849
CA -13.3919 -5.01254 63.6036
CA -22.8088 -0.827107 46.078
CA -16.3854 -22.0833 22.891
CA -4.35828 -1.03102 1.8032
CA -31.7072 -21.1995 32.9548
CA -10.4999 -21.8886 51.3815
CA -17.0729 -18.1515 14.6349
CA -21.3712 -36.2193 19.4962
CA -26.159 -29.447 26.3172
CA -10.6376 -32.1642 39.2062
CA -15.786 -30.8025 20.3553
CA -26.6368 -18.7923 53.099
CA -38.1592 -40.0711 55.9198
CA -15.0213 -7.00253 14.7717
CA -21.8796 -3.23184 44.5677
CA -33.7239 -13.3505 37.5441
CA -40.1654 -36.5305 56.0174
CA -21.3793 -37.1761 48.5788
CA -14.5251 -14.4778 25.3541
CA -32.7174 -32.0292 70.7766
CA -14.8885 -21.4075 47.6809
CA -18.1565 -42.3534 73.6089
CA -14.3462 -8.21596 9.54362
CA -28.8866 -33.7824 54.1158
CA -47.3402 -9.40866 71.4827
CA -20.4523 -31.3268 45.0993
CA -48.0671 -11.6385 61.8543
CA -47.2805 -3.94582 50.1905
CA -31.4829 -36.5418 71.8456
CA -17.4604 -23.632 35.1169
CA -24.7586 -22.1376 37.4645
CA -32.4576 -26.9375 52.5712
CA -34.4768 -15.0101 37.8088
CA -35.4757 -27.5584 73.0292
CA -12.2853 -35.3748 15.5646
CA -27.9246 -15.2674 73.1475
CA -28.8914 -46.0607 67.6099
CA -24.6892 -27.7248 74.362
CA -33.0474 -24.9735 55.0492
CA -42.8686 -17.7957 53.31
CA -29.6367 -36.7844 68.1493
CA -47.2666 -31.1237 63.91
CA -35.8658 -24.5685 72.6425
CA -37.009 -33.1613 66.6165
CA -20.2122 -10.3409 41.2283
CA -33.9292 -8.9089 34.5924
CA -38.6032 -32.2458 78.7427
CA -43.4393 -10.7338 53.709
CA -42.1392 -27.433 55.2693
CA -24.7747 -24.7731 81.6889
CA -12.8042 -20.3542 50.1338
CA -6.12536 -4.22484 0.960991
CA -38.64 -22.518 67.3532
CA -14.5448 -11.8649 57.246
CA -38.4124 -31.1748 37.7733
CA -43.6121 -28.6244 59.9525
CA -38.6745 -29.3399 45.8455
CA -39.1812 -30.8803 36.0428
CA -47.1006 -5.29075 55.5133
CA -40.2562 -15.5672 74.6269
CA -4.53069 3.57349 4.28487
CA -44.2709 -18.3163 58.0973
CA -14.9906 -13.3485 67.1976
CA -47.3548 -12.3562 80.4043
CA -24.0897 -28.8099 72.5611
CA -9.72284 -22.3219 17.2296
CA -39.0822 -15.2948 46.427
CA -52.8668 -12.239 59.5222
CA -3.60118 -19.4637 57.8905
CA -39.4727 -16.6139 62.723
CA -13.3179 -9.57925 3.73996
CA -45.2916 -11.826 72.3872
CA -15.885 -16.0642 18.9318
CA -12.7875 -29.9152 42.9203
CA -43.8167 -8.01642 52.1985
CA -46.3571 -29.5579 57.0532
CA -29.8053 -11.73 65.2084
CA -35.294 -19.795 68.586
CA -20.6565 -17.0347 20.2635
CA -21.6098 -21.9029 50.3693
CA -21.293 -7.32512 9.21683
CA -11.5055 -11.6875 57.2539
CA -15.9482 -26.3143 27.4439
CA -41.8147 -17.1611 80.2354
CA -9.5796 -32.1163 47.7559
CA -24.8222 -33.0291 41.964
CA -18.054 -28.1178 40.0012
CA -6.90713 -26.0256 49.0731
CA -31.3888 -19.1665 73.7911
CA -9.57452 -15.287 56.4051
CA -21.8669 -6.37677 56.7943
CA -13.0086 -4.9246 5.30816
CA -44.5965 -15.6906 72.9633
CA -26.0369 -26.503 26.0214
CA -17.3905 -35.9468 70.9304
CA -20.2329 -32.2551 14.9196
CA -2.67879 -11.834 59.0235
CA -32.4752 -33.0445 50.979
CA -50.0204 -22.2653 67.2914
