489

CA -13.8777 -12.378 14.195
CA -25.5761 -43.7527 69.0598
CA -21.8363 -18.2448 61.8399
CA -29.8979 -8.60273 35.9327
CA -35.0429 -4.12195 45.0762
CA -31.6987 -10.2771 67.6487
CA -10.5888 -8.3008 17.2293
CA -33.2268 -30.5486 78.9769
CA -39.5942 -18.9181 47.8454
CA -25.0627 -22.9108 49.5492
CA -38.992 -13.3431 64.304
CA -21.9955 -23.493 65.3322
CA -32.0069 -34.4135 72.0049
CA -35.5071 -15.4307 35.6158
CA -26.7527 -17.3303 39.4807
CA -31.4885 -3.45367 50.2246
CA -47.7795 -29.1057 65.4973
CA -22.869 -26.3104 29.5123
CA -41.498 -33.4432 45.0599
CA -37.1648 -28.4767 31.7907
CA -41.398 -16.7123 44.5201
CA -20.6417 -34.76 56.4416
CA -53.7168 -23.751 61.0579
CA -26.5254 -30.9631 40.4887
CA -11.9849 -11.0572 6.00266
CA -48.8688 -24.746 59.4275
CA -38.0397 -10.5048 51.646
CA -22.0267 -6.1589 7.00924
CA -25.1126 -46.54 68.9374
CA -15.1308 -19.6798 42.5619
CA -18.2621 -9.48087 37.7218
CA -35.6052 -3.55855 34.1994
CA -29.4599 -29.6981 83.0825
CA -18.9043 -30.3538 60.0039
CA -15.498 -18.5294 17.8113
CA -23.5017 -33.6685 37.3203
CA -19.68 -40.9724 76.8302
CA -12.9198 -15.066 18.134
CA -37.3286 -21.3175 77.317
CA -27.2916 -24.1226 56.0885
CA -29.2341 -25.833 31.4347
CA -24.141 -32.932 47.4545
CA -48.2488 -12.8013 64.0747
CA -44.6732 -11.3133 46.5772
CA -12.8726 -10.0065 25.69
CA -19.8592 -20.6543 13.5299
CA -44.4158 -17.8199 51.4908
CA -55.6682 -16.9424 61.5537
CA -46.9047 -27.1586 37.4824
CA -30.4155 -16.9345 52.3061
CA -9.90162 -13.9168 16.1032
CA -6.64483 -12.132 61.3449
CA -22.6204 -30.1154 46.3845
CA -37.8454 -13.0534 78.2951
CA -46.473 -25.8117 69.9339
CA -19.2219 -13.6792 51.1359
CA -10.2669 -8.96408 18.9926
CA -35.3122 -4.64504 64.5996
CA -37.3712 -15.2944 84.1883
CA -29.0235 -39.3835 69.4427
CA -34.2354 -21.4671 67.9739
CA -23.3582 -10.3399 66.0329
CA -38.6579 -3.89603 58.1343
CA -24.3519 -30.9257 21.161
CA -39.3815 -18.0762 58.3847
CA -7.47952 -13.3213 16.5456
CA -51.7886 -9.94809 65.8016
CA -26.293 -27.1326 59.5594
CA -22.4373 5.69006 58.3949
CA -36.9638 -37.2447 60.882
CA -37.2628 -23.2342 61.2324
CA -38.907 -16.721 69.9154
CA -17.2937 -12.8671 21.9802
CA -31.562 -20.957 69.7214
CA -34.994 -34.0717 73.1179
CA -35.5209 -34.7192 66.736
CA -24.8452 -3.8204 46.2876
CA -15.691 -8.72489 18.0417
CA -35.8435 -10.6144 63.2926
CA -30.1547 -13.7643 68.9047
CA -16.4412 -35.8576 38.948
CA -37.5306 -13.8302 37.841
CA -30.9443 -1.96707 35.4992
CA -26.0177 -30.8815 36.6757
CA -23.5565 -24.786 27.9911
CA -36.0132 -23.1576 35.432
CA -12.8573 -29.26 24.2698
CA -30.4225 -40.2308 47.1949
CA -23.2819 -9.66175 38.296
CA -29.2431 -21.4322 49.6737
CA -17.6805 -25.0686 22.4482
CA -10.6709 -1.32926 19.1617
CA -41.7498 -3.88803 47.6569
CA -26.8874 -23.7706 22.4048
CA -26.9319 2.16124 58.3197
CA -8.59726 -25.6186 25.7171
CA -21.3282 -5.5923 64.601
CA -41.7497 -17.6281 61.1682
CA -52.5154 -16.6725 58.1839
CA -11.8468 -15.0497 52.7563
CA -30.1415 -13.363 50.3293
CA -40.7332 -6.97351 54.705
CA -35.9637 -26.7454 76.6404
CA -13.5762 -34.3387 66.2053
CA -56.2288 -21.3322 62.2902
CA -21.012 -10.4553 30.2293
CA -26.7802 -5.89326 59.6231
CA -17.1974 -12.2934 57.31
CA -34.4789 -25.1835 30.6561
CA -43.4476 -15.4191 47.4261
CA -35.8249 -30.4393 30.5138
CA -33.5943 -32.5855 64.1984
CA -29.0613 -42.501 78.9908
CA -25.9024 -25.9663 26.7234
CA -55.8925 -18.3403 52.5824
CA -32.8932 -1.88484 60.5571
CA -17.1094 -8.49381 8.99445
CA -39.1827 -8.41647 48.2075
CA -4.12582 -5.65949 1.01288
CA -27.6898 -50.9832 67.2278
CA -22.1053 -17.8147 49.3228
CA -34.9679 -33.7108 35.2865
CA -39.6786 -6.60392 61.482
CA -22.0554 -13.4775 57.2473
CA -27.533 -26.0977 39.9241
CA -35.8672 -21.5292 63.5311
CA -22.5905 -29.1034 49.3368
CA -44.3879 -30.4134 62.8611
CA -43.0615 -17.1802 62.7758
CA -40.1897 -15.4254 35.5779
CA -28.8152 -37.546 86.8573
CA -51.306 -21.5045 63.0135
CA -37.3391 -2.66339 58.4803
CA -42.8282 -36.5956 59.5971
CA -32.1878 -34.1661 89.8365
CA -25.6836 -33.6479 65.4127
CA -10.5971 -10.7317 17.6222
CA -43.4497 -17.2631 83.3694
CA -17.711 -31.4582 31.2718
CA -12.0376 -28.1529 43.1811
CA -42.8512 -1.15146 52.6067
CA -50.9119 -14.4553 63.8422
CA -48.4712 -18.0092 52.2724
CA -32.6686 -21.8927 64.8198
CA -29.3437 -8.25055 48.1524
CA -27.4993 -22.5024 65.6248
CA -23.044 -14.2305 47.2269
CA -14.3058 -28.5579 38.0466
CA -32.9046 -27.3681 33.5845
CA -58.8525 -16.3633 62.9958
CA -32.7505 -13.8076 49.0547
CA -9.57677 -5.21358 4.1153
CA -43.5101 -38.4316 55.6822
CA -35.7541 -9.57483 39.3961
CA -10.6708 -15.3812 3.81358
CA -47.3835 -31.0762 68.5904
CA -17.033 -19.65 61.3124
CA -44.3266 -17.8351 79.5376
CA -29.3051 -31.1295 50.72
CA -29.787 -6.50958 57.9255
CA -20.2815 -12.6741 42.0398
CA -35.7685 -37.0071 59.0631
CA -12.4746 -11.2871 61.1042
CA -11.6001 -8.88133 2.38138
CA -43.2762 -18.0991 60.2766
CA -41.4171 -28.8898 65.37
CA -34.7683 -20.1483 34.2075
CA -49.7789 -6.65398 68.6131
CA -15.3694 -6.99816 10.9186
CA -43.9607 -20.837 59.8078
CA -24.9006 -7.91616 55.8008
CA -18.7045 -34.1062 24.3464
CA -31.1321 -4.82559 38.4401
CA -22.3061 -23.9975 73.262
CA -33.7296 -25.0172 79.7402
CA -20.4063 -3.93058 43.7663
CA -30.0542 -36.5949 49.9159
CA -31.6374 -0.634638 38.3444
CA -15.3438 -20.7054 19.2401
CA -6.02702 -15.7566 58.0299
CA -16.4494 -31.2574 76.842
CA -41.8635 -9.96857 87.8593
CA -28.9189 -15.0161 60.3705
CA -18.1866 -17.555 38.7418
CA -20.3073 -15.6218 58.4569
CA -24.1594 -33.4373 79.9668
CA -17.8969 -12.2391 69.738
CA -13.5022 -19.561 45.051
CA -14.8895 -24.9479 40.6934
CA -21.0203 -29.5211 35.7179
CA -45.7144 -24.2482 76.9189
CA -35.9216 -19.8498 37.9799
CA -34.3412 -27.1469 49.3879
CA -34.1274 -6.80971 40.2974
CA -8.54974 -17.8441 17.849
CA -18.4902 -16.1419 68.6138
CA -31.0514 -26.1718 48.1205
CA -30.1662 -26.2963 43.3464
CA -26.8845 -22.1923 62.3592
CA -45.8946 -15.2227 54.6339
CA -45.021 -23.0656 50.5516
CA -22.6851 -13.6705 37.558
CA -31.3547 -18.534 38.5701
CA -43.9557 -23.4389 48.8227
CA -53.0257 -12.4522 63.6307
CA -24.6482 -30.4662 16.2742
CA -37.7599 -18.2839 37.035
CA -14.5936 -34.6523 70.8411
CA -28.622 -2.19144 56.1872
CA -18.3946 -23.3395 49.0931
CA -34.2915 -28.7658 75.6423
CA -38.4375 -19.9164 30.7267
CA -46.622 -31.3103 71.5601
CA -39.4253 -26.8123 45.3095
CA -30.5054 -15.5933 56.1909
CA -27.5407 -8.67013 54.5818
CA -24.4291 -22.7966 67.1215
CA -18.7596 -25.8486 43.7016
CA -31.6165 -26.5733 55.6616
CA -34.4895 -29.3871 70.4168
CA -38.1317 -11.4108 85.3699
CA -21.4677 -29.6056 61.6883
CA -19.8177 -31.5612 57.227
CA -36.2901 -9.15693 61.5998
CA -46.3019 -26.7948 51.8465
CA -18.6589 -30.3997 67.4329
CA -37.1574 -16.7847 82.2171
CA -15.1156 -28.1999 43.1463
CA -33.9113 -16.7617 47.8424
CA -31.2231 -11.8027 42.2672
CA -13.8226 -31.1109 17.581
CA -25.487 -9.30302 38.4938
CA -38.3864 -4.8525 37.5933
CA -13.1026 -32.2167 39.1291
CA -27.1217 -24.6377 34.4952
CA -31.6054 2.82874 58.8905
CA -37.1353 -35.1879 87.086
CA -38.9545 -3.49113 56.2221
CA -19.5761 -13.9896 14.8839
CA -28.6138 -30.9489 85.3991
CA -18.4786 -24.0945 38.0351
CA -31.7178 -32.7881 87.0966
CA -39.3132 -35.5173 62.7642
CA -21.0821 -32.3624 26.407
CA -23.8026 -32.1055 15.8261
CA -25.4459 -5.20122 34.4431
CA -29.7022 4.97659 60.442
CA -18.1789 -11.3635 46.7885
CA -33.432 -13.567 46.1324
CA -12.8278 -32.1577 48.282
CA -36.9299 -25.894 58.228
CA -4.84467 -22.6997 52.2765
CA -39.5734 -30.2632 66.3984
CA -20.7746 -11.2851 47.604
CA -20.319 -34.8405 46.8507
CA -8.28627 -9.25675 50.5361
CA -7.89703 -14.7995 57.748
CA -8.6384 -6.38391 15.4006
CA -37.8359 -17.6305 54.0649
CA -31.478 -9.5309 70.683
CA -32.6771 -35.7518 50.9622
CA -16.3086 -35.6763 51.7607
CA -33.6911 -28.9088 34.7915
CA -31.1594 -36.3023 52.1677
CA -28.569 -45.2512 79.6889
CA -9.98426 -17.7356 48.4922
CA -30.2478 -27.7813 55.9308
CA -1.599 -2.36148 -1.19286
CA -16.623 -0.688893 44.828
CA -14.7577 -14.4021 65.5913
CA -53.174 -21.2199 61.767
CA -38.2591 -11.1875 67.9158
CA -8.61034 -24.1251 50.0601
CA -26.0061 -3.32367 7.48297
CA -27.8707 -39.6893 78.4166
CA -42.7294 -9.69237 81.4873
CA -49.4847 -16.6899 53.4128
CA -21.1011 -20.1196 51.0926
CA -34.8604 -29.7914 77.0597
CA -22.2028 -32.5469 66.2117
CA -31.2563 -4.45312 60.3365
CA -17.0163 -4.51445 35.3629
CA -51.5104 -28.6888 50.8454
CA -15.7682 -11.8051 27.213
CA -16.9661 -9.10326 49.1293
CA -15.3601 -8.58445 64.6711
CA -15.8579 -17.4548 12.4857
CA -15.1927 -30.305 52.8041
CA -29.8592 -17.3516 44.7248
CA -43.4211 -11.5081 45.2197
CA -36.7343 -28.9975 36.2336
CA -28.4116 -32.6498 83.048
CA -13.2582 -20.6987 48.1543
CA -41.6198 -14.5618 41.984
CA -25.1988 -37.4484 44.3395
CA -27.3204 -10.2307 57.4912
CA -6.34746 -13.6385 52.0109
CA -21.7639 -33.485 75.7185
CA -37.1696 -4.22238 39.1724
CA -28.5345 -37.2769 72.0104
CA -6.94836 -11.3637 17.5414
CA -3.11378 -10.1314 58.1788
CA -21.9492 -37.4694 79.5466
CA -19.4756 -33.0215 16.9986
CA -42.2438 -17.4697 36.6113
CA -26.8902 -4.7632 36.9645
CA -18.4638 -20.0292 59.2214
CA -30.9928 -23.4035 52.434
CA -22.2288 -47.9439 69.1353
CA -26.4541 -18.7376 43.3396
CA -47.6307 -12.0322 43.3954
CA -32.3793 -45.5413 45.7946
CA -35.5033 -34.1246 56.0634
CA -24.5838 -9.758 64.68
CA -49.9252 -32.0954 55.1558
CA -22.4563 -31.9384 58.6789
CA -30.0779 -38.3634 74.073
CA -36.9814 -11.0005 79.5742
CA -30.0985 -6.44024 36.3333
CA -18.319 -18.7501 16.2884
CA -42.2914 -15.241 85.452
CA -2.85222 -13.7985 59.6738
CA -14.5904 -35.558 15.2305
CA -37.825 -36.6088 65.8487
CA -51.7676 -26.459 63.1469
CA -36.69 -24.8046 68.6278
CA -24.598 -29.5467 18.0048
CA -17.9628 -27.5965 77.0553
CA -9.44828 -6.16731 20.3888
CA -27.2686 -36.5255 76.3817
CA -39.7374 -19.1613 80.3159
CA -47.3324 -30.7224 66.3166
CA -28.5804 -13.2688 65.0552
CA -31.5726 -16.5484 44.0902
CA -37.0138 -7.03587 55.1636
CA -16.2654 -16.8727 45.2212
CA -20.7175 -12.6615 39.0768
CA -14.3439 -17.0067 46.6546
CA -29.2328 -18.3789 65.6217
CA -14.2182 -33.2977 40.4837
CA -19.8804 -27.3264 70.1128
CA -9.7482 -5.34666 16.8135
CA -44.3085 -19.7699 79.1174
CA -42.6925 -26.9168 35.7131
CA -23.8895 -30.1577 76.9032
CA -35.1068 -26.8755 75.0537
CA -13.7785 -19.8224 14.9443
CA -32.5626 -39.9466 42.964
CA -19.2019 -31.613 35.4794
CA -0.0985485 -1.93962 -0.164182
CA -25.7323 -33.8337 49.1463
CA -44.9596 -15.1891 63.4019
CA -14.8169 -11.2781 66.0563
CA -21.5702 -27.8769 47.8608
CA -18.5719 -36.3736 24.6913
CA -35.7243 -26.7149 54.3093
CA -44.6977 -23.2892 70.1401
CA -24.4246 -28.2602 28.8148
CA -41.2117 -20.6013 75.7121
CA -38.152 -36.1948 59.5564
CA -17.2321 -28.9684 31.903
CA -25.7443 4.89473 57.474
CA -12.4768 -12.6794 54.3675
CA -28.4797 -42.5999 48.6741
CA -37.9788 -31.7884 42.2709
CA -23.0335 -0.255685 58.3087
CA -10.1995 -20.1472 50.0475
CA -22.8817 -14.7122 58.904
CA -26.9242 -33.539 79.4074
CA -50.2391 -18.4478 66.8065
CA -40.956 -15.337 45.6826
CA -37.2329 -6.46776 39.6823
CA -9.09227 -13.045 6.86485
CA -24.0093 -30.606 33.1432
CA -22.9978 -28.5444 17.407
CA -29.19 -10.6802 68.1083
CA -25.588 -25.6016 62.1486
CA -35.3889 -15.132 59.5433
CA -39.5787 -35.4981 55.759
CA -29.4404 -0.585454 58.7705
CA -49.2504 -13.3825 68.9719
CA -36.1891 -26.8008 39.816
CA -26.2714 -20.6955 43.4974
CA -45.946 -18.7811 56.4738
CA -17.3572 -11.4347 30.1346
CA -16.1096 -22.2634 20.4209
CA -20.4391 -25.9439 49.9729
CA -33.5196 -6.73398 31.5264
CA -38.8363 -1.92783 60.6178
CA -15.4855 -36.1007 18.9849
CA -35.5615 -33.3853 60.7756
CA -40.4942 -28.671 49.4016
CA -46.425 -29.0607 53.1318
CA -4.35828 -1.03102 1.8032
CA -36.2008 -11.9178 68.1168
CA -30.7829 -8.65033 57.1212
CA -17.0729 -18.1515 14.6349
CA -21.3712 -36.2193 19.4962
CA -26.159 -29.447 26.3172
CA -10.6376 -32.1642 39.2062
CA -15.786 -30.8025 20.3553
CA -26.6368 -18.7923 53.099
CA -22.006 -33.4423 28.7415
CA -15.0213 -7.00253 14.7717
CA -26.9886 -21.209 47.0163
CA -39.2949 -13.484 79.8942
CA -24.3766 -8.87313 44.7074
CA -40.5052 -14.4534 89.0123
CA -31.1405 -29.0818 61.3043
CA -23.77 -34.7045 42.2622
CA -9.81197 -28.7804 52.1051
CA -24.4219 -34.5917 23.7188
CA -14.3462 -8.21596 9.54362
CA -24.9918 -18.206 44.9456
CA -54.9183 -23.4076 65.2599
CA -20.4523 -31.3268 45.0993
CA -37.7318 -33.8592 36.7936
CA -47.2805 -3.94582 50.1905
CA -52.03 -17.9054 55.341
CA -27.8047 -35.4264 41.1215
CA -24.7586 -22.1376 37.4645
CA -32.4576 -26.9375 52.5712
CA -36.9925 -16.8128 37.7408
CA -35.5054 -11.9542 66.4447
CA -12.2853 -35.3748 15.5646
CA -20.5093 -28.4754 74.1056
CA -28.8914 -46.0607 67.6099
CA -33.6307 -13.0476 51.3405
CA -33.0474 -24.9735 55.0492
CA -40.5856 -24.0508 39.4193
CA -17.6712 -31.5741 55.2369
CA -20.1185 -27.8354 58.7287
CA -35.8658 -24.5685 72.6425
CA -13.6862 -12.628 59.5836
CA -38.5395 -15.4001 71.1826
CA -21.9847 -28.3962 22.1262
CA -42.2905 -10.2916 46.1525
CA -35.9928 -6.9623 42.8723
CA -6.70897 -12.0771 53.4961
CA -38.0791 -18.5943 49.3489
CA -12.8042 -20.3542 50.1338
CA -6.12536 -4.22484 0.960991
CA -38.64 -22.518 67.3532
CA -30.5701 -51.0401 70.5735
CA -29.1204 -1.76732 34.9201
CA -39.2794 -32.6996 64.8309
CA -38.6745 -29.3399 45.8455
CA -39.1812 -30.8803 36.0428
CA -44.0952 -9.68889 79.3611
CA -18.9025 -27.8236 56.293
CA -42.849 -25.34 49.3567
CA -22.0906 -17.6357 53.9478
CA -14.9906 -13.3485 67.1976
CA -47.3548 -12.3562 80.4043
CA -35.1489 -20.5241 65.5355
CA -9.72284 -22.3219 17.2296
CA -29.0521 -17.7288 69.209
CA -52.8668 -12.239 59.5222
CA -42.6031 -26.5965 55.1278
CA -9.08029 -15.545 53.8083
CA -13.3179 -9.57925 3.73996
CA -23.6811 -20.9203 73.4121
CA -15.885 -16.0642 18.9318
CA -12.7875 -29.9152 42.9203
CA -31.1989 -31.9885 85.5215
CA -46.3571 -29.5579 57.0532
CA -22.0428 -25.0807 45.4943
CA -46.8527 -28.3394 64.0102
CA -40.723 -14.2165 80.8866
CA -34.4706 -8.71279 44.9783
CA -28.4585 -12.5212 46.4663
CA -34.2246 -4.42923 63.0374
CA -5.8799 -12.0564 56.2865
CA -51.1342 -18.9628 70.0045
CA -18.4134 -21.8915 60.6684
CA -56.391 -23.198 61.3948
CA -15.356 -30.487 74.4136
CA -19.2912 -12.8933 61.9195
CA -23.2506 -33.6873 74.1645
CA -29.8869 -23.1028 42.7601
CA -30.9954 -23.8568 45.484
CA -52.599 -21.5423 59.03
CA -41.8677 -8.91846 75.216
CA -21.4667 -12.0999 34.1002
CA -16.9237 -34.5447 55.9512
CA -20.2329 -32.2551 14.9196
CA -45.2526 -1.47841 53.1557
CA -45.7275 -28.6941 69.2551
CA -49.3852 -14.3849 62.0817
