489

CA 30.9862 -15.4605 45.0729
CA -12.0853 2.91262 42.3547
CA 12.2724 15.4465 60.8408
CA 21.7667 4.37782 39.4334
CA -10.1946 20.1532 44.4283
CA -21.2113 -19.026 40.6052
CA 21.5198 2.52362 64.4125
CA 26.6391 4.73598 60.2207
CA 27.515 0.317327 41.2405
CA 3.06646 -22.8005 28.7824
CA -3.56886 -24.7771 31.917
CA -11.5478 -13.6622 60.4849
CA 22.9573 3.32256 52.2188
CA 21.8722 15.3487 50.5717
CA 15.7298 -16.742 17.321
CA -5.28474 -20.5922 36.1958
CA 18.923 3.59432 60.6114
CA 3.93259 15.1156 18.1001
CA -4.02541 21.131 51.4815
CA -17.1165 2.75944 27.9745
CA -32.1423 23.2468 37.0131
CA -21.4285 15.4399 33.0507
CA 14.6616 19.8657 31.7238
CA 16.4905 19.3306 49.9202
CA -9.13274 -0.0868997 31.6759
CA -25.279 16.499 69.2727
CA -3.98877 0.713078 34.7074
CA -9.34984 -22.6828 20.9088
CA 12.2052 12.07 31.2878
CA -8.26243 10.7093 77.091
CA 5.27407 1.22375 57.6374
CA 28.3271 14.3469 58.0536
CA -13.6102 -26.683 69.5418
CA 23.4099 10.7401 78.1548
CA -2.54801 -24.4153 22.3535
CA -16.8513 -19.7839 21.8005
CA 9.94646 -23.1705 63.1774
CA -0.534536 -4.7951 66.9175
CA 21.1368 0.237365 63.2094
CA 3.91467 14.096 26.8055
CA 14.5746 -4.88314 59.0546
CA 20.0283 -23.6667 44.4154
CA -3.77103 -18.7441 38.3841
CA 6.55215 12.0918 30.5845
CA -2.83729 0.344062 45.6842
CA -3.97421 -10.3607 80.1694
CA 14.9759 20.7547 73.9705
CA 18.8731 -30.6916 61.1907
CA 22.5061 1.5987 58.2978
CA -9.44321 7.91483 34.4662
CA 1.02006 18.2914 61.0634
CA -2.41897 -15.6801 33.7207
CA -5.68158 29.7546 55.3574
CA 10.6848 -19.8343 40.4306
CA -6.02973 -36.3455 41.3074
CA 29.9871 -1.2502 44.0577
CA 14.22 35.3473 52.2749
CA -5.19994 -35.3622 37.6895
CA -26.1159 0.250029 30.26
CA 13.0301 4.40253 23.3894
CA 10.4589 12.0493 27.1159
CA -6.84556 0.910539 39.1139
CA 18.8876 10.1974 78.4968
CA 0.14916 26.9316 50.1451
CA 20.0218 25.6034 45.6967
CA -6.21943 16.5748 61.713
CA 17.5963 21.2762 31.701
CA -10.4543 -26.0267 58.9948
CA 7.78606 -19.6283 77.8853
CA -2.18203 -4.97465 68.2014
CA 20.47 1.13541 58.1523
CA 6.16185 11.0692 25.9449
CA -21.8434 -18.6769 35.7993
CA -1.32673 21.6005 49.8571
CA -1.75964 25.698 36.2584
CA -9.16041 9.59736 58.2613
CA -0.594374 17.1231 43.1147
CA -7.1712 33.719 45.1966
CA -31.0043 9.93027 73.2174
CA -28.8774 19.0084 34.1166
CA -4.46595 32.7092 44.8641
CA 12.4076 -27.6076 42.6019
CA -10.851 27.3824 26.2621
CA -2.0743 17.2506 61.0709
CA -10.1103 -20.7887 22.0783
CA 28.5022 -22.4091 56.5593
CA 15.0743 -17.6427 67.2848
CA 20.9765 -7.92913 65.0289
CA 27.1605 0.702707 53.8468
CA 0.901583 -18.4728 50.9208
CA 1.10111 22.6547 15.0996
CA 18.1781 -1.08186 27.1099
CA -13.7078 -21.4635 63.0616
CA 30.8968 12.7324 29.9705
CA -10.5262 32.4774 44.581
CA 1.85109 -2.01944 37.9844
CA 17.7043 -11.4712 26.3359
CA -9.28128 9.57042 20.1053
CA -14.9321 -26.1801 72.707
CA 27.6839 -0.62521 42.9031
CA 22.7667 -0.394812 54.3956
CA -24.9362 21.2077 73.0803
CA 7.37263 27.2319 62.8153
CA 21.867 -1.9132 54.9252
CA 14.4163 -15.403 51.4006
CA -9.90469 11.8808 51.1635
CA 14.6458 13.0101 31.4181
CA 17.3581 -21.7773 39.3496
CA -7.4942 -20.7726 23.5941
CA -22.2286 23.9214 73.6373
CA -6.25913 2.7833 28.9632
CA 29.1652 -0.412861 41.194
CA -4.00879 -15.7757 27.4749
CA -26.9015 -5.51642 67.6128
CA -6.98291 -1.77061 51.3163
CA 14.4129 -2.12592 79.6819
CA -15.8204 26.8027 43.6659
CA 22.0429 -5.48342 50.087
CA 13.9009 3.5896 38.7994
CA -2.28854 16.5854 81.3403
CA -7.32443 31.2506 37.312
CA -1.3362 26.2387 45.9593
CA -7.13916 12.0956 60.166
CA -15.2569 -36.4413 44.6074
CA 8.39351 12.8943 64.4263
CA 2.47894 -16.4388 83.6824
CA 19.9707 -32.3815 54.7193
CA -10.7726 8.45052 73.0616
CA -19.3302 -2.42132 74.8386
CA 22.9332 -2.51413 34.9531
CA -22.6582 -5.21618 23.5154
CA 19.9527 -15.2238 24.2225
CA -12.5244 -34.804 45.5587
CA -3.06306 -26.8382 33.332
CA -13.7813 -22.9388 38.0048
CA 15.6091 -33.5809 52.1115
CA -6.06494 7.38998 65.4406
CA -13.2698 14.5858 73.7655
CA 4.11015 7.74156 33.0934
CA 7.98199 -6.64958 50.4898
CA -23.4418 14.4296 35.5368
CA -4.33906 33.3569 38.6818
CA 23.331 7.24928 52.962
CA -9.32049 22.4978 35.3677
CA -3.06149 19.7286 55.5993
CA -1.11907 30.4097 53.706
CA 4.46308 13.115 30.2819
CA -11.804 -21.0109 70.9672
CA 15.6547 8.36163 24.5527
CA 4.74686 20.3951 29.7625
CA 23.9524 -4.96814 54.0409
CA 16.8553 8.15826 54.5935
CA -19.3076 2.37724 71.8302
CA 20.1016 12.6879 54.2093
CA 18.208 -3.27868 61.6757
CA -9.63702 30.682 42.2937
CA -4.18684 -24.9514 41.5236
CA 21.2628 8.58454 73.6501
CA -19.9709 28.7644 53.7766
CA 2.01234 5.24281 45.0273
CA 22.5866 -10.7802 62.2396
CA 28.2411 8.92417 38.5435
CA 27.7466 6.66308 63.8949
CA -20.2102 7.97849 64.5324
CA -5.0702 -26.999 36.6111
CA 11.4173 16.0801 63.151
CA -4.05293 -25.3523 35.2458
CA 6.66283 22.1878 33.2729
CA 10.0432 -3.09833 56.4022
CA 16.1722 3.48604 28.0573
CA 19.1354 -30.7154 59.1016
CA -2.80197 4.64997 63.6134
CA 23.8598 -9.98316 77.6216
CA 3.05541 -17.9353 47.964
CA 5.58908 24.44 75.9038
CA 10.4508 9.75672 42.0456
CA 7.5826 0.829406 69.8321
CA 28.1957 7.51835 46.4062
CA 8.0824 -28.5274 24.3884
CA 6.7838 15.2458 46.1019
CA 3.9562 11.7986 28.7687
CA 22.324 30.7792 62.5134
CA -18.997 -2.48757 81.3792
CA -9.74237 4.68022 43.5915
CA -22.964 -3.01789 74.0597
CA 8.14785 34.4936 34.768
CA 26.2008 7.99664 39.3126
CA -22.115 -6.34846 71.4121
CA 10.412 9.42423 37.9984
CA 6.09421 25.3709 58.8238
CA -12.4259 -22.3739 20.6518
CA 33.6553 5.50261 53.2155
CA 20.8229 33.8959 67.1419
CA 39.7138 10.5884 49.1406
CA -15.3079 -0.67046 61.582
CA 17.9555 18.8077 71.2544
CA 12.7344 5.53233 37.6844
CA 24.0958 18.7397 47.6797
CA -2.07069 -2.15513 68.7188
CA -33.8232 14.1792 40.282
CA 12.3825 -8.93598 76.6938
CA 6.89497 -36.2655 55.4259
CA -1.94164 6.91059 36.2422
CA 20.2648 4.41571 65.7213
CA -13.6531 33.6696 42.7913
CA -10.059 -28.5029 47.8104
CA 29.4536 -13.3647 69.146
CA 5.49516 25.4798 73.7348
CA -5.02766 -22.3476 32.5765
CA -10.9729 -22.2992 66.6821
CA 3.27418 -16.2229 55.2717
CA -2.19077 -9.37142 81.3917
CA 8.62867 -19.673 51.3904
CA 24.6205 12.208 77.8671
CA 28.2122 2.75512 35.3282
CA -20.7725 5.19911 56.7432
CA -6.85725 -14.5351 29.0483
CA 4.92751 0.0768676 47.1095
CA 7.94943 8.48261 43.0067
CA -11.6636 9.28966 19.688
CA -4.47191 6.65497 75.7988
CA 1.89101 22.1364 16.8523
CA 6.89259 3.7505 44.6509
CA 1.85052 -18.3883 37.8675
CA 8.43283 -29.4406 41.6096
CA -2.66691 -22.8305 18.4239
CA 20.5157 7.01195 59.7973
CA -3.43591 -24.2642 73.3438
CA -17.3978 -5.50398 24.6492
CA 8.7162 13.1618 60.1342
CA 19.5013 -6.34102 59.5013
CA -20.809 -4.53523 72.0253
CA 4.38937 12.1189 52.8181
CA 2.96876 -23.9667 41.376
CA 16.9533 -25.4166 72.6242
CA 19.0929 15.1761 74.2621
CA 28.4078 -1.416 29.4458
CA -3.26632 -27.4484 18.3087
CA 18.2522 -35.1665 47.4168
CA 17.5628 10.2261 32.6318
CA -16.4799 7.78427 38.747
CA -26.9979 -9.03421 62.7251
CA -11.3425 6.84689 85.6293
CA -2.4601 0.206062 69.7868
CA -4.66167 -17.8988 68.6654
CA -0.319757 -14.1508 57.1096
CA -27.7885 14.3002 37.175
CA 5.05544 -29.0353 49.3027
CA 18.7836 15.223 63.1526
CA 15.7982 -0.203827 64.2776
CA 15.5692 -7.82727 16.9958
CA 9.8323 -8.45118 77.595
CA 14.8116 -20.9682 37.9942
CA -21.1111 -14.6567 35.0636
CA -14.7442 -21.158 70.455
CA -4.88377 -1.52356 43.5539
CA 18.4327 16.5152 34.7693
CA -4.62614 8.44967 63.6104
CA 7.01087 -8.29598 59.3883
CA -12.5986 -28.9168 69.7588
CA -27.8943 -18.8582 59.8268
CA -25.3756 -7.77688 64.0438
CA 28.2786 6.94739 48.4598
CA 21.6425 6.91121 65.5235
CA -0.854197 9.18659 53.5586
CA 20.7394 30.6024 65.6679
CA -3.42552 -11.1566 55.0704
CA 16.2422 22.6807 44.0034
CA 29.0312 7.04959 52.4998
CA 14.1926 -25.0404 75.5799
CA 0.600874 18.8974 58.3953
CA 17.3045 32.3157 52.4893
CA 21.4958 13.4972 74.6839
CA 19.0805 21.5374 36.8319
CA 11.3451 9.80269 29.704
CA -25.9313 12.4432 62.3634
CA -9.51867 19.7118 66.1078
CA -11.7464 -26.0525 18.0524
CA 6.56963 -1.69715 22.0016
CA -9.67124 9.80726 74.4174
CA 21.2911 -0.515458 26.7054
CA -17.9468 13.7062 25.0706
CA 22.4112 -26.8775 62.2367
CA 22.4602 -1.05575 36.6353
CA 16.153 7.33054 33.5363
CA 22.2724 -24.8845 61.0213
CA -29.5034 -23.4945 57.1974
CA 17.1968 -13.0041 51.686
CA -0.616903 11.0101 52.0739
CA 23.9687 -6.34951 66.0827
CA 13.4327 4.02546 25.8608
CA 5.12215 16.5222 43.5753
CA 16.8166 -3.12219 55.3077
CA 5.69657 -17.7925 52.194
CA 22.0351 -26.8839 65.8705
CA -17.7302 9.15814 50.822
CA -24.8939 7.84578 74.066
CA -4.35894 19.1442 58.4454
CA 4.29909 -21.1787 75.7161
CA -9.8856 -23.3435 22.7801
CA 15.3347 18.4652 34.2476
CA -3.0134 -26.5586 41.7958
CA 25.7332 4.11849 37.0243
CA -11.1739 -25.0765 71.4542
CA 25.2772 -12.0722 61.5931
CA 24.9403 0.0332644 27.9604
CA -29.2439 10.8784 69.7695
CA 17.0427 10.1655 72.2867
CA 15.5058 -23.2893 42.9054
CA 2.41596 14.121 13.273
CA 25.9644 -15.6164 65.0493
CA 12.6071 -31.9388 54.9129
CA 11.4274 -20.5061 43.7072
CA 23.6165 6.95742 65.7088
CA 20.599 -1.68299 59.0885
CA -26.4233 4.88278 26.2487
CA -10.827 31.2684 41.0253
CA 17.5916 -17.6251 65.2159
CA -11.5292 -10.7677 37.0108
CA 3.26544 16.1232 42.8216
CA -9.31501 1.91145 44.3812
CA -0.529551 -23.2365 38.4262
CA 14.4704 18.4012 49.5635
CA -27.7836 -6.7597 36.8059
CA -11.5082 -3.74688 32.3947
CA -19.0046 2.91306 30.092
CA 15.5903 4.98641 50.3545
CA 27.7542 4.65345 35.8662
CA -34.3436 -13.5904 36.7717
CA -30.1653 7.55607 77.7707
CA -19.8511 3.10738 28.0007
CA -9.59623 0.0734964 39.0803
CA 19.631 18.2984 71.8674
CA -15.5366 -13.2585 61.2515
CA -19.9073 2.41544 20.2789
CA -10.895 8.31708 75.145
CA -16.568 21.9307 78.6784
CA -2.20588 -34.2284 53.4429
CA 16.645 15.3794 71.614
CA -11.056 21.8233 35.0321
CA 20.2185 -5.71544 43.0899
CA 12.9469 25.289 25.194
CA 19.2739 16.927 62.8211
CA -27.3337 -27.5905 69.162
CA -22.9902 4.16958 48.1816
CA 21.9682 5.99251 70.8443
CA -28.9173 10.8631 75.2675
CA 6.23023 -8.46211 67.3486
CA 22.6942 4.72032 62.8726
CA 14.2617 23.2951 35.7853
CA 14.8243 32.3536 57.1781
CA 23.7184 -3.63558 42.0002
CA 1.72892 18.8721 28.4434
CA 24.0083 -13.1787 74.8802
CA -8.24015 -20.2225 20.3881
CA -14.5299 36.09 54.5256
CA -18.3343 14.6212 28.7218
CA -4.26529 14.7525 78.7315
CA -7.62289 20.9942 65.0123
CA 14.9423 23.8824 71.3519
CA 12.1027 -6.19763 55.269
CA 22.6189 -3.92279 39.5906
CA -7.55715 26.8967 22.8425
CA -6.52555 5.0332 82.914
CA 28.6769 5.30311 39.9581
CA -4.91603 -23.2482 35.3565
CA -5.248 4.91546 64.3497
CA -4.72781 -20.2546 30.8151
CA -9.21901 16.1081 59.4746
CA 11.6405 -26.5672 76.0684
CA 8.89063 22.8574 26.2655
CA -7.49886 9.19495 63.2011
CA 16.6595 28.8399 63.6743
CA -16.6686 10.6047 42.9109
CA -16.4632 8.48297 27.0155
CA 6.28266 -14.8523 78.8982
CA 22.8942 -28.1965 59.1198
CA 16.32 18.0106 53.6183
CA -30.6352 -5.82688 37.5448
CA 10.3847 -18.3778 44.4759
CA -4.6974 10.7541 73.9238
CA -0.941141 0.288168 45.3569
CA -4.00408 -16.5253 69.6407
CA -21.8176 8.53279 57.4374
CA -7.66021 39.2925 36.8433
CA -12.2583 -25.0268 63.7592
CA -24.6783 -5.47852 38.9473
CA -22.6537 -1.78872 78.9068
CA 16.2706 19.3985 29.3298
CA -12.3583 -25.9669 23.8981
CA 14.358 -20.99 43.4166
CA -5.01699 -0.593958 67.3461
CA 16.0645 -4.3333 20.2116
CA -1.27477 -27.5955 34.8909
CA -17.0758 -21.0859 67.9383
CA 18.1524 17.389 64.2305
CA 23.5816 25.5734 59.7074
CA 3.69353 1.24461 16.165
CA -9.06996 -0.771116 86.5189
CA -0.563097 -23.9772 24.6366
CA 1.62553 -3.10672 36.2849
CA 16.84 15.8353 68.3279
CA 16.9875 -18.4056 39.6234
CA 1.44168 -2.2272 43.5994
CA -27.0229 14.8713 35.0693
CA -18.2158 6.93097 69.5886
CA 16.9582 -29.9178 60.5275
CA -7.31077 -11.2724 80.078
CA -2.48149 -13.6566 54.2877
CA 20.4602 22.2981 44.1318
CA 6.03263 -2.73716 24.6359
CA -29.1734 3.02705 45.6875
CA -9.3322 29.4675 38.3291
CA -8.26502 3.82234 38.9109
CA 20.4902 9.88707 72.3484
CA 25.8945 8.29129 41.7501
CA -16.0209 16.0976 41.9337
CA 28.205 -3.72686 41.8278
CA -6.10802 1.1737 42.982
CA 4.29924 -16.5179 53.4701
CA 16.3087 20.3814 39.6498
CA 23.011 -1.4031 52.4361
CA -14.1931 -38.5006 48.4104
CA -15.6553 -18.1257 24.4162
CA 14.1978 -17.8916 65.6814
CA -3.93434 -28.0999 35.5088
CA 15.9134 16.9865 73.296
CA -2.70965 -21.1083 82.1951
CA -28.7817 17.6843 74.3512
CA 4.01077 -15.1196 77.8662
CA 11.511 -29.7391 20.9772
CA 10.018 26.4639 56.6692
CA 20.0445 7.96971 76.9202
CA -3.42783 -13.2834 78.1193
CA 1.61007 20.372 42.5063
CA 26.6225 4.03574 38.6871
CA -13.0865 -23.9704 59.894
CA -34.1645 -16.4589 33.0799
CA 38.8127 4.81704 49.9347
CA 29.8877 3.26891 30.5609
CA 7.24323 -23.0298 28.7873
CA 10.0925 24.2278 46.5098
CA 17.0902 15.1714 61.4539
CA -11.2946 -0.908274 86.6502
CA 21.7918 15.1112 23.2863
CA -3.77275 -25.7746 16.182
CA 9.82435 -2.22443 24.0379
CA 29.6807 12.9012 27.6087
CA -24.7979 21.8015 68.306
CA -25.1315 13.1362 35.3636
CA 4.95573 -37.9698 56.7884
CA 12.5949 13.0373 44.4138
CA 3.54522 -0.526823 14.9002
CA 10.8332 -5.79561 83.1062
CA 13.417 -19.9498 41.1369
CA -6.58605 28.3296 25.5931
CA 12.796 -0.170396 78.0991
CA -10.4497 -27.254 19.9761
CA 15.1739 14.8773 32.3451
CA 27.8528 6.99607 41.2902
CA -19.2059 6.76722 26.6502
CA 29.8052 -24.3702 60.8483
CA 6.57787 -5.71619 57.9817
CA -26.9585 -24.2746 66.5154
CA -19.9149 -2.63647 78.5957
CA 21.9352 5.78951 53.7669
CA 30.2265 17.6081 69.0402
CA -13.4156 -36.7088 45.2333
CA 38.0848 10.5145 47.5198
CA 14.0564 5.30641 34.8628
CA -4.59728 4.74637 34.6267
CA 0.185447 14.4701 12.2568
CA 5.51702 14.5507 23.9974
CA 16.7865 6.37762 48.4788
CA 3.81304 25.6772 63.3507
CA -9.42409 21.4086 64.2662
CA 0.299578 24.3329 60.7856
CA -9.32444 4.05973 41.9141
CA -7.28322 3.14301 32.6616
CA -6.03154 -12.0361 78.4838
CA 6.42875 -32.0771 49.5721
CA -27.8122 21.0608 32.6171
CA 1.85115 -7.69247 42.6702
CA 8.89035 -19.8243 62.6269
CA 30.9732 5.86885 47.7031
CA 27.4999 2.3592 40.0633
CA -5.60302 11.5027 58.6099
CA 15.3332 2.97151 31.0307
CA 16.6323 19.8382 31.1981
