489

CA -11.4862 4.91797 61.2259
CA 26.1608 12.2798 77.8647
CA 2.13006 -13.2695 59.8774
CA 5.71951 25.0268 65.8973
CA 5.3504 13.6344 29.6369
CA -3.03554 14.9362 58.8247
CA -9.02444 18.6666 33.6449
CA 24.1869 25.5574 44.6822
CA 27.3409 -2.5095 57.8886
CA 6.23771 -12.4158 52.9519
CA 24.962 30.0296 59.9148
CA -11.9286 17.5307 38.7224
CA -11.4515 36.3891 23.6353
CA 20.3641 17.2713 83.3444
CA 24.2958 13.9057 74.6244
CA 7.58558 -11.1381 56.069
CA 4.13568 26.7061 18.5831
CA 4.53254 24.2397 70.2022
CA 28.6909 9.71791 44.2254
CA 13.354 31.0561 76.9183
CA -2.94661 11.6191 16.9939
CA 17.5736 20.9275 33.898
CA -10.4483 4.60114 58.7964
CA -2.67145 6.75145 70.5147
CA 19.8896 20.6645 53.175
CA -16.7479 6.82232 71.5045
CA 11.4902 8.73778 37.1597
CA 22.2757 34.5879 52.4379
CA -6.50137 11.7946 18.938
CA 3.40511 23.5327 37.2218
CA -1.73293 31.1127 45.4642
CA 27.3846 20.9767 68.7119
CA -12.3437 -2.47682 39.371
CA 17.5745 18.0368 32.4414
CA 18.8391 3.01188 40.5151
CA -1.41121 7.55727 59.8533
CA 11.8896 1.783 41.3832
CA 1.15989 22.3346 42.5251
CA 8.47606 -19.2986 48.9885
CA -13.8327 11.2111 73.2356
CA 6.63996 27.709 17.9627
CA -8.27176 17.9741 35.4817
CA 9.33446 -19.0763 46.0176
CA 7.56238 22.6016 77.2793
CA -4.64449 11.9184 18.7012
CA -14.4318 17.3 15.9177
CA -6.54065 14.0893 66.2377
CA 17.8905 0.630523 72.0211
CA -0.608742 29.3905 41.6563
CA 16.1012 2.61769 54.368
CA 0.0555815 7.30022 54.4889
CA 11.3413 8.9953 66.9137
CA 0.0987495 18.9305 35.6998
CA 18.2261 22.209 75.8404
CA 21.7595 8.15603 60.1283
CA -1.56522 28.6175 72.2812
CA -11.5505 3.30669 44.4438
CA 9.45663 20.2545 75.8094
CA -0.792121 26.2062 18.6907
CA 23.2708 23.7173 49.8943
CA 2.79942 23.7434 74.1307
CA -5.82895 22.6899 32.7711
CA -7.99074 18.4555 30.1775
CA 29.5203 8.5969 57.7333
CA 17.1592 16.8937 50.1633
CA -0.892593 24.3076 14.9507
CA 26.0629 6.20617 51.0217
CA 23.1955 24.9525 47.2604
CA 15.7728 5.55671 69.287
CA 17.3289 15.3223 41.7439
CA -6.86696 24.4034 54.3857
CA 32.6276 -0.122425 54.8253
CA 15.4045 18.7174 26.964
CA 26.6701 35.4598 61.2815
CA -2.83791 18.4313 78.721
CA 10.299 25.9718 59.1815
CA 20.489 28.5945 59.9473
CA 23.2296 23.3391 53.3235
CA -13.4348 29.6812 23.2567
CA -7.25383 0.382284 35.7738
CA 16.7746 20.5494 35.7644
CA 21.7779 20.2922 58.8371
CA 9.176 17.8101 74.9564
CA 27.4085 35.5663 56.996
CA 3.69001 24.8495 44.5364
CA 14.8166 17.8866 40.4139
CA -7.77163 22.4894 46.1689
CA -7.7914 28.2843 49.3095
CA 27.1224 28.848 74.4904
CA -0.219321 23.4469 70.1506
CA 23.3904 -1.43857 63.1427
CA 2.58265 -5.67623 55.6113
CA 25.2494 -4.33877 58.8713
CA 17.2862 37.4199 56.1019
CA 8.34661 0.151771 56.8719
CA 5.18442 26.8951 53.7197
CA 27.1286 3.5401 46.1893
CA -4.8556 11.9038 14.7399
CA 17.9451 0.768124 52.2428
CA 7.35799 23.8133 36.0055
CA -14.7393 6.79272 38.274
CA -9.37378 21.9104 54.3147
CA 20.3956 4.32404 73.0258
CA -1.23096 9.70981 65.2569
CA 10.1365 19.537 50.4149
CA -3.40815 24.5652 64.1198
CA 17.1635 32.1001 55.4776
CA 19.9661 30.8763 65.0766
CA 29.4845 14.7799 48.7091
CA -16.242 7.02656 48.8085
CA -7.81103 18.0993 15.8802
CA -1.51799 5.90828 49.7281
CA 4.08828 -9.86359 62.3093
CA 14.8196 9.91707 67.0327
CA 7.54942 23.1568 65.9421
CA -3.75386 -4.76707 42.0412
CA -7.90353 23.0333 53.7177
CA 21.4065 28.9653 67.3966
CA -8.05795 22.4129 16.1083
CA 20.6516 11.06 35.9454
CA 17.4367 1.33935 41.2424
CA 2.27805 28.8536 12.6748
CA 24.8428 5.61948 46.4653
CA 14.8642 28.2822 78.8196
CA 27.3987 32.8339 38.3506
CA 24.7656 26.7758 47.4288
CA 6.39429 14.3196 78.9081
CA 9.16977 15.524 44.3028
CA 20.7472 30.3803 33.1863
CA -2.67867 27.9888 54.0971
CA -8.68349 20.4735 39.4257
CA -13.0868 30.2056 16.3631
CA -14.0574 0.111723 59.3813
CA -3.29137 26.0211 23.5825
CA 11.2693 11.7335 64.8317
CA 21.7073 6.46019 59.2605
CA 1.85917 25.8519 9.66152
CA 26.6528 13.4089 71.3764
CA -1.78513 21.2738 37.2491
CA 30.2209 -0.0449478 55.1976
CA 19.9598 30.6771 34.908
CA 4.44509 4.41187 76.2275
CA -8.45086 22.0255 27.0518
CA -4.3505 3.4582 40.7523
CA 16.8684 8.88547 70.0836
CA 15.6781 0.417325 70.2135
CA -6.70502 16.2865 69.0906
CA -7.30752 3.00965 48.2673
CA -5.8286 21.4313 25.9043
CA 9.98759 20.3318 29.2148
CA 4.71301 17.3427 27.4087
CA 9.71415 25.1305 24.3017
CA 6.56957 31.9121 56.5576
CA 18.6018 39.735 57.5368
CA 10.5116 2.58782 75.5606
CA 12.5884 33.0962 79.321
CA -11.43 2.36651 60.2122
CA 4.89749 -11.6012 48.1034
CA 12.7713 13.2359 27.7515
CA 25.5708 9.80268 79.7225
CA 1.04124 34.8412 20.3922
CA -13.6739 3.15272 59.4603
CA 13.9681 7.16159 49.3487
CA -1.02364 23.5372 65.7702
CA 9.09759 -0.587296 58.6864
CA 10.5134 3.4194 58.2083
CA 0.339466 24.9045 71.8816
CA 29.966 30.0346 58.3106
CA 22.6976 20.5591 55.205
CA -5.82983 5.06187 68.0453
CA 19.4296 13.0264 70.992
CA 9.6385 2.98976 70.3917
CA 21.9119 4.92437 40.5121
CA 25.9105 6.14036 56.3046
CA 12.8423 5.59051 70.1704
CA -13.988 33.9364 25.999
CA 20.2244 22.082 70.9254
CA 15.376 14.0829 28.4123
CA -9.16469 17.9474 44.2635
CA -8.86372 30.1459 22.0407
CA 11.3929 15.9667 40.3014
CA -2.3277 4.33463 47.3287
CA 26.5053 17.0463 67.5128
CA 28.5425 10.5351 68.7245
CA 21.0231 24.8057 57.9218
CA 5.49503 17.1741 42.8618
CA -0.262882 23.4688 53.7609
CA -1.32354 24.4658 49.8394
CA 25.7291 -12.7014 60.4494
CA -9.98636 19.691 15.4352
CA -5.02026 23.0843 45.6413
CA 21.8733 3.83465 61.8141
CA 11.3995 19.0352 40.4415
CA -5.26511 27.8098 50.3567
CA -4.71129 30.9402 44.4479
CA 24.3774 30.0345 31.2281
CA 12.3005 5.36707 42.2171
CA -2.80594 21.9887 82.09
CA 3.68975 11.1438 73.7814
CA -0.149414 -13.6804 54.0018
CA 12.349 8.4748 30.2054
CA 16.0364 -0.365333 71.8073
CA 22.5204 12.7878 67.1511
CA -7.182 2.10021 39.2803
CA 20.0997 9.33476 64.5291
CA -8.19108 6.23572 70.206
CA 10.8155 33.0003 60.055
CA -12.7781 8.01427 73.454
CA -9.93332 23.3742 24.8992
CA -5.29615 6.74946 69.2706
CA -9.31228 8.00296 72.8176
CA 0.189218 -12.9376 52.3544
CA -10.979 17.4783 36.02
CA 15.9467 24.8548 59.916
CA 21.6873 4.70693 74.3245
CA -1.15032 33.2932 19.7565
CA 5.26952 28.8993 50.9261
CA -1.5174 25.8863 32.6629
CA 23.3032 33.8043 76.9804
CA 27.4558 -4.34918 58.2455
CA -3.94698 -7.56088 41.738
CA -5.00573 21.3698 35.6649
CA -1.75733 23.78 18.4573
CA 8.0556 8.09471 82.034
CA -0.0690836 29.6704 23.7587
CA 0.722175 27.2709 76.2209
CA 19.3765 33.9428 50.2594
CA 13.7167 23.1126 61.1866
CA 8.67387 22.2105 31.0212
CA 3.68856 22.7846 35.5343
CA 25.2492 11.7015 81.2223
CA 3.30406 32.4579 15.6918
CA -6.06721 14.3389 16.7786
CA 11.778 23.8695 59.8152
CA -6.43649 26.508 50.9987
CA 0.225374 28.4272 77.6609
CA 16.3288 2.96225 70.8618
CA 16.8541 34.5554 55.9391
CA 10.2202 4.23291 67.9494
CA -10.4795 14.7305 66.4771
CA -4.37179 26.8238 18.5064
CA 8.70281 1.30355 52.704
CA 12.6257 8.06222 68.7195
CA 6.18275 -10.9495 58.2216
CA 20.3745 -1.73765 38.944
CA -4.24886 29.1204 42.9627
CA 15.2481 20.9978 33.0662
CA 20.0981 7.39092 66.0623
CA 23.5439 2.91821 77.2051
CA 17.386 6.23117 46.0176
CA 18.3073 18.0545 87.0933
CA 1.52049 -5.94354 51.2692
CA -8.73098 6.61396 51.1964
CA 28.4905 13.5741 71.6522
CA -3.25883 5.1311 52.8669
CA 5.68952 23.1882 65.3648
CA 19.3105 1.46303 42.2162
CA 2.99048 18.4525 24.0471
CA 18.1576 30.6402 56.5477
CA 19.6942 29.756 73.6934
CA 4.45485 -10.6826 60.5571
CA 0.258003 26.2083 16.5284
CA 21.966 27.3058 63.4234
CA -5.24372 15.4575 66.8629
CA -3.92793 28.5313 48.0218
CA 24.263 32.4701 27.9088
CA -0.999422 18.3326 77.1802
CA 11.9269 -7.42531 52.3123
CA -4.2581 19.6552 23.3366
CA 24.9284 7.60838 43.0106
CA 24.41 31.0815 74.3118
CA 25.224 -9.15484 56.9633
CA -5.22807 19.2224 39.9062
CA 10.2172 22.5786 36.6975
CA 14.1711 9.45585 69.1379
CA 16.5606 8.19858 68.2036
CA 15.1233 11.5403 43.7762
CA -6.65197 23.6566 29.5685
CA -11.4035 5.23144 40.0225
CA -3.09144 19.1796 40.0278
CA 3.14417 -21.8719 57.6717
CA -2.51105 23.6273 22.0955
CA 21.3055 29.5572 62.9062
CA -10.4112 10.2795 51.2205
CA 27.5161 0.903988 50.9008
CA 14.4914 33.5914 55.2542
CA 19.3033 3.83702 37.6472
CA -2.53274 29.021 30.8308
CA 22.2172 17.0281 52.2042
CA 25.0777 35.2381 71.2756
CA 16.414 16.0704 35.2675
CA 12.8105 10.4028 72.7836
CA -15.3816 28.4929 14.5035
CA 14.5781 18.5632 42.9366
CA 29.1172 11.6928 40.7663
CA 3.50039 17.2257 71.1215
CA -4.79528 -9.04694 40.2804
CA 21.84 13.4672 53.0795
CA -4.29796 11.5482 58.6855
CA -7.81377 1.75213 55.4708
CA -1.81382 24.8631 54.5119
CA 15.8721 26.1564 75.6024
CA 28.4491 33.1841 33.3781
CA 12.1932 23.6076 39.1103
CA 13.3064 24.6261 58.8837
CA 18.3158 7.32989 37.8763
CA 5.12712 17.3792 74.1977
CA 16.1591 11.3822 33.7037
CA 11.8573 21.5086 39.7166
CA -4.66145 28.6607 21.9339
CA -9.34871 19.5921 18.1078
CA 1.98113 9.62331 66.2244
CA -7.80988 5.03203 41.2216
CA -6.46988 24.4635 65.2681
CA -8.67618 0.963258 54.0249
CA 19.6418 5.2535 54.8268
CA 16.1261 17.093 39.3026
CA 25.1499 -4.75837 61.5832
CA 20.7086 -2.16532 36.5847
CA 7.98198 -11.5449 47.0559
CA 13.41 2.64415 57.3028
CA -11.8107 18.4295 16.9766
CA 31.4343 10.8102 41.1851
CA 25.1015 -0.533775 38.8908
CA 11.0033 21.3215 22.9607
CA 13.2399 18.6873 38.9925
CA 23.643 32.6379 36.1169
CA 4.70225 32.8238 53.2317
CA 6.64749 26.8609 44.1179
CA 26.3658 22.5018 44.9139
CA -8.36577 28.7909 51.6054
CA -3.83404 13.9436 67.9833
CA -5.99179 3.77075 56.6349
CA 4.12015 31.4339 48.5266
CA 15.126 11.3252 30.3742
CA 20.0113 3.55134 70.8294
CA 23.3126 16.8695 81.6386
CA 12.6676 8.32259 64.3375
CA 0.535287 27.5809 65.0003
CA -0.64567 21.058 69.5755
CA 6.89231 -2.74751 57.1498
CA 21.3639 12.5152 37.0382
CA -19.0136 25.2215 17.4015
CA -11.995 6.64167 60.5286
CA 24.8185 29.4521 70.9345
CA -3.58311 7.33324 67.4934
CA 15.3262 13.3965 73.7812
CA -4.0644 16.6484 28.1938
CA 1.0617 19.9562 37.1965
CA 19.1405 33.8468 73.2544
CA -0.391499 17.8346 21.8212
CA 15.6296 19.1624 39.3986
CA -12.4339 13.8611 70.9292
CA 7.37071 -19.4209 44.2867
CA 13.6918 10.9612 65.7871
CA -11.3326 22.3585 40.0271
CA 11.642 7.24706 72.9506
CA -16.4485 28.4802 19.2344
CA -0.39796 28.2586 61.7833
CA 22.79 6.7657 74.4463
CA 29.7325 33.4376 57.8858
CA -13.2592 5.19644 50.1189
CA 14.1354 9.05282 31.4377
CA 14.2142 15.8246 25.9329
CA 5.16884 15.8311 26.4641
CA 17.5479 29.8043 33.4347
CA 17.1996 28.0785 75.1605
CA 5.16313 20.0526 30.7665
CA -2.52573 0.144784 72.2097
CA -4.18146 29.0708 16.0319
CA 21.0618 32.5589 75.1498
CA 14.4825 22.0915 69.7233
CA -5.78862 13.8424 44.0447
CA 0.231398 13.4089 17.8847
CA -12.3233 5.58931 76.7086
CA -12.0873 9.38914 47.0999
CA -4.90904 32.3236 47.9497
CA -14.7821 21.3117 13.4185
CA 31.207 9.85713 43.7598
CA 6.30546 -9.87687 56.6998
CA 11.9151 21.672 43.2424
CA 22.3991 30.5061 49.5842
CA 24.5529 4.25948 50.9953
CA 26.8162 -0.131369 59.3892
CA -11.6026 11.5143 67.9153
CA 7.94504 5.09257 78.0692
CA 16.6077 10.7135 73.7089
CA 7.59447 13.8863 34.7819
CA 6.14883 5.27826 76.1473
CA -1.5815 21.8551 39.5323
CA -5.11126 11.2439 64.3691
CA 12.3669 22.5382 27.8613
CA 1.26063 3.81976 72.6328
CA 20.0244 15.4011 72.4213
CA 23.8325 3.11636 63.7158
CA 9.54092 -14.0176 54.2383
CA -10.7883 16.8135 44.335
CA -0.83814 26.7318 73.7241
CA 10.7699 -9.64907 48.1489
CA -15.4767 15.2692 69.822
CA 18.0648 15.4062 29.7873
CA -14.5371 21.5689 15.3342
CA 24.8919 12.9901 66.7506
CA 24.8382 2.92358 68.0943
CA 20.0778 15.4609 51.5007
CA -0.161876 19.7631 66.0549
CA -0.828762 6.80612 67.752
CA 10.5508 19.6874 35.6463
CA 24.0788 5.0998 67.9079
CA -20.7574 21.4592 13.506
CA -3.55093 20.8253 79.2696
CA -7.96978 18.3263 47.1054
CA 10.588 5.81674 69.1253
CA 27.3508 34.8757 70.4925
CA 19.2232 11.9167 38.6136
CA 31.1727 -0.830592 53.553
CA -5.43162 23.3297 23.128
CA 22.3578 11.427 69.3515
CA -6.05964 27.7884 18.3169
CA 30.7815 29.9637 60.5896
CA -3.35315 25.6287 77.9994
CA 12.1613 21.2652 37.808
CA 18.3887 5.36206 73.8044
CA -10.1508 7.62356 55.3691
CA 2.7431 -11.9962 58.072
CA -10.4112 22.8063 60.453
CA 19.944 31.4397 76.5501
CA 23.6411 4.18644 61.9177
CA -4.45525 31.6569 29.144
CA 14.6462 33.3867 61.0696
CA 21.8655 14.0825 47.9411
CA -0.0522232 26.6858 68.2885
CA 5.31892 -13.0612 49.1054
CA 9.22656 -11.6356 54.4223
CA 10.1114 17.1432 41.1323
CA -11.7657 26.0851 18.5679
CA 16.6077 -0.576291 52.946
CA -13.2178 15.0607 23.2346
CA 3.59973 26.1906 75.3507
CA 17.5792 24.7391 57.1969
CA -5.8593 2.73797 46.7642
CA 25.4511 4.16667 63.2329
CA 23.5747 6.42675 76.2859
CA 21.9782 28.6742 70.6755
CA -3.5926 30.9993 20.6322
CA 24.6514 8.93341 71.0809
CA 14.5529 25.2528 32.0894
CA -3.81674 23.1777 39.8795
CA 0.141185 20.3507 40.975
CA 7.36181 5.60679 79.8702
CA 13.5232 22.7009 77.1189
CA 26.8582 25.7904 73.7021
CA 30.7481 -2.74038 55.8483
CA 3.07853 24.2594 76.5132
CA 2.23865 15.1201 69.7676
CA 13.8958 10.5523 34.4808
CA 13.4943 -3.66806 70.8274
CA 13.7217 4.21961 34.3519
CA 13.6156 21.635 73.5731
CA 27.1155 21.349 71.7682
CA 17.9692 25.2188 76.0865
CA -9.19269 20.6214 43.3067
CA -2.59949 34.2814 18.415
CA -4.09315 13.3359 60.0263
CA -0.680889 1.94112 74.1853
CA 24.7217 28.8799 49.1043
CA 28.5965 2.20961 63.2301
CA 26.6286 -2.69096 39.2698
CA 6.94701 17.4158 20.2488
CA -5.9891 17.343 38.0634
CA 13.7829 7.45443 34.3284
CA 13.1535 17.5065 29.7438
CA -8.88214 -3.54679 36.2827
CA 18.4011 3.48836 71.9879
CA -8.08552 12.8366 59.9921
CA -3.89835 30.2354 50.7994
CA -5.61406 19.1688 50.578
CA -3.49117 22.6767 24.0811
CA -6.01918 17.1264 50.2824
CA 0.932011 26.9959 30.246
CA 22.1464 23.6723 71.5138
CA 29.0771 4.50314 65.9253
CA 10.7525 5.17352 39.5406
CA 17.6088 5.56627 52.6491
CA 26.7836 15.1093 43.7415
CA 11.6297 30.5099 62.3647
CA -9.61544 33.2644 18.6271
CA 22.937 23.9943 58.8495
CA -8.49686 19.4729 53.9249
