489

CA -4.9016 27.4667 32.4091
CA 27.5173 22.8113 73.2739
CA 0.54248 27.6528 37.2218
CA 5.71951 25.0268 65.8973
CA 0.371702 22.3264 26.7662
CA 25.3315 24.327 77.4012
CA 20.6406 34.3155 45.0999
CA 11.8867 6.0045 40.8304
CA 24.9277 20.1902 76.071
CA 6.23771 -12.4158 52.9519
CA 26.3816 30.0121 66.8962
CA 0.801638 16.3382 26.4755
CA 21.1338 1.54489 76.013
CA 3.29428 12.938 69.16
CA 2.60252 19.3282 27.1315
CA 20.4861 8.20856 45.3056
CA 14.785 30.6485 73.9495
CA 28.5304 10.3734 73.1892
CA 23.4083 12.5235 41.3081
CA -6.21516 9.32166 61.2022
CA 7.08793 13.1725 57.7869
CA -6.7647 -6.40378 58.1593
CA 8.45696 -12.6556 52.9543
CA 30.2288 -0.960086 44.4746
CA -9.16289 30.7627 15.468
CA 5.96932 22.3273 38.5878
CA 29.0079 13.321 43.5041
CA 22.2757 34.5879 52.4379
CA 16.44 26.9524 66.761
CA 0.289646 25.9368 61.6038
CA -1.73293 31.1127 45.4642
CA -7.67998 23.2504 38.0617
CA -15.5283 0.09772 35.0826
CA 12.6999 15.2165 37.2501
CA 8.29763 28.7886 47.9091
CA -1.41121 7.55727 59.8533
CA -16.117 4.98813 71.3851
CA 13.3111 27.015 29.3023
CA 5.8842 39.0541 57.1486
CA 17.0399 27.7898 64.463
CA -14.292 5.24414 57.6332
CA 31.5238 10.1164 44.1093
CA -7.5201 5.24804 72.5193
CA -7.57141 12.5584 66.3462
CA 10.419 17.7184 35.4316
CA 3.19048 30.9046 53.6516
CA 15.7482 5.3269 48.4638
CA -4.62422 17.7734 76.5792
CA 0.723014 9.03613 53.1648
CA -9.92982 3.87145 75.4067
CA 14.763 11.2341 70.8059
CA 27.5543 16.6597 83.582
CA -0.368473 17.3041 44.1863
CA 20.4645 15.2782 57.7423
CA 0.597412 38.284 19.847
CA 21.1167 29.886 44.239
CA 0.485078 19.5431 12.8615
CA 0.00790127 10.0049 59.8251
CA -12.7448 11.3791 66.7774
CA -14.8127 4.0325 31.902
CA 3.22339 26.3822 49.794
CA -13.1203 9.2303 55.9508
CA 1.69517 27.5871 72.3494
CA 0.645148 12.7023 37.0946
CA 0.728563 31.2394 17.6095
CA 3.01948 33.4338 56.2454
CA 18.2823 23.5624 37.9981
CA 12.6044 9.53542 71.4119
CA -4.04544 21.1005 16.5167
CA 2.06684 18.3928 41.6878
CA -4.69869 36.1647 17.8458
CA 21.0828 22.2772 38.7887
CA -5.09981 -6.11864 55.7283
CA 6.19917 -13.5516 58.5303
CA 25.2241 -0.0948451 62.8313
CA 5.39492 38.094 21.3521
CA 26.7764 9.80073 46.8621
CA 23.2296 23.3391 53.3235
CA -9.69228 22.8393 46.6777
CA 14.4433 32.4714 53.6228
CA -11.6992 5.29052 43.6448
CA 31.7313 5.50939 69.7977
CA 1.33541 29.2812 57.3131
CA 18.2686 6.69635 73.9033
CA 3.60026 -14.8115 50.6972
CA 1.93787 -0.504978 51.6933
CA 3.32207 20.2686 31.4294
CA 16.1011 29.9597 66.7152
CA 28.2907 10.9752 38.6743
CA 28.24 2.82009 69.549
CA 23.3904 -1.43857 63.1427
CA 2.58265 -5.67623 55.6113
CA 26.6591 3.20278 59.2693
CA -11.8089 15.7283 38.7449
CA 2.63328 28.6865 54.8319
CA 9.15327 15.0568 29.4584
CA 5.0165 17.4733 71.0964
CA 2.6971 26.1541 73.4845
CA 28.3212 16.0922 55.7302
CA 2.25172 -10.2171 54.4803
CA -4.58458 -3.33482 49.2955
CA 28.6635 31.8904 67.4943
CA 23.4942 17.7518 76.2347
CA 4.49197 -4.36719 59.2457
CA 27.6636 -1.65513 60.0598
CA 6.48539 -2.1097 53.2814
CA 3.92463 38.7101 27.6518
CA 24.5146 16.2174 75.5895
CA 18.8534 19.2765 31.9883
CA -1.08917 33.8879 49.8736
CA -2.79477 26.1151 64.9122
CA -6.25587 -3.56941 86.5043
CA 4.08828 -9.86359 62.3093
CA 3.36453 24.0924 38.3132
CA 10.9247 9.68991 72.7999
CA 33.9575 0.915185 71.8296
CA -13.3209 18.3331 15.1575
CA 20.2775 1.65723 77.5984
CA 0.541536 20.2599 49.072
CA 29.1826 4.14906 68.7633
CA 13.2906 19.6613 27.6094
CA 16.44 32.1888 71.1763
CA -6.71577 30.5076 27.1828
CA -0.292328 21.3556 38.8397
CA -0.701788 26.5885 72.7642
CA 14.898 11.1171 35.6101
CA -7.52945 25.617 60.7218
CA -1.85106 16.8424 59.7528
CA 19.9338 13.3121 40.6247
CA 0.181812 26.0998 58.6408
CA -7.22671 1.0642 54.7957
CA 14.9656 15.5671 28.8203
CA 18.5024 26.9957 74.4723
CA 22.6466 1.03457 69.2357
CA 15.4934 24.9771 36.7624
CA 22.5084 11.2433 65.5938
CA -0.0109747 16.3874 32.0575
CA 26.6528 13.4089 71.3764
CA 11.5928 -9.26224 64.5414
CA 8.85837 11.917 38.2032
CA -4.78389 27.3718 64.1431
CA 17.0188 11.6148 72.2046
CA 20.1915 13.1101 59.0326
CA -3.41637 34.6058 20.0269
CA 22.6743 8.34125 76.067
CA 8.21291 25.8012 58.8182
CA 12.4215 3.60866 51.7513
CA -2.05299 14.0499 45.0516
CA 8.27751 29.2247 28.9995
CA 0.756029 4.53041 68.4677
CA 29.8472 29.5633 73.5218
CA 14.4475 35.0355 59.4344
CA 6.56957 31.9121 56.5576
CA 18.4152 9.35063 67.8563
CA 7.18846 21.0718 72.7339
CA 33.2066 28.204 60.3861
CA 19.1285 35.169 73.1535
CA -12.3424 7.51125 72.8472
CA -12.2062 -1.64419 48.5116
CA 31.712 3.76151 70.242
CA 19.5661 5.4697 75.1472
CA -9.98821 26.1934 56.0104
CA 19.7498 28.1697 62.5261
CA 8.40074 21.0605 70.6925
CA -1.98536 31.6026 19.3252
CA 21.831 -1.67085 71.266
CA -4.24695 28.7079 17.1334
CA 2.30295 16.232 32.5612
CA -4.16387 9.34228 53.96
CA -8.14363 4.60874 77.6128
CA 17.4173 24.6137 34.7737
CA 11.3317 19.9068 31.5038
CA 14.0046 25.832 75.5211
CA 25.9105 6.14036 56.3046
CA 4.46687 8.08051 51.2323
CA 26.9524 28.321 55.6947
CA 29.0734 -0.950771 65.2604
CA -11.4714 -1.96736 34.2155
CA 4.54943 31.4656 68.6299
CA -8.86372 30.1459 22.0407
CA 22.2989 -1.00614 65.4345
CA -8.01756 3.81095 45.4267
CA 8.4486 13.6161 45.8569
CA -11.1453 19.1427 19.1149
CA 10.9043 25.0703 72.8567
CA 13.1275 29.4074 75.9193
CA 28.3282 14.0485 57.143
CA 14.9957 7.06881 49.4713
CA -7.75193 32.8741 45.1751
CA -2.50634 33.097 14.2321
CA -1.27441 17.4133 73.6493
CA 11.4959 23.4863 31.8805
CA -14.02 24.5017 18.0192
CA 12.1896 4.59164 34.0097
CA -7.42066 30.8029 14.8382
CA -14.8533 2.05124 44.5408
CA -14.969 1.61778 54.2496
CA 7.01224 18.158 72.4926
CA -1.28571 22.6007 21.0253
CA 25.8896 22.306 70.4181
CA 4.43709 24.9169 17.25
CA 21.1476 31.5259 41.5911
CA 4.62003 16.4284 31.278
CA 15.2739 10.0716 72.4787
CA 20.0997 9.33476 64.5291
CA -8.19108 6.23572 70.206
CA 20.6648 37.2644 40.0092
CA 0.278981 8.16879 65.4037
CA 14.0773 6.16936 44.6579
CA -7.88193 27.2454 17.9766
CA 2.41473 -0.182774 56.1388
CA -2.61974 25.0386 71.3183
CA -5.09863 20.0264 22.117
CA 2.95399 28.1379 67.345
CA 6.82648 13.2571 42.9449
CA -4.65846 17.8609 78.6986
CA 5.26952 28.8993 50.9261
CA -1.45531 22.3047 14.8679
CA 2.84737 18.0788 28.4304
CA 30.3067 11.5292 45.5789
CA 8.91963 9.56761 28.1657
CA -5.00573 21.3698 35.6649
CA 35.6169 28.4817 59.5193
CA 19.6427 25.9963 63.0157
CA -0.0690836 29.6704 23.7587
CA -5.77176 27.6461 25.97
CA -19.356 23.7671 15.5874
CA -0.48622 5.87886 68.565
CA 0.55608 27.0058 52.8114
CA 19.5793 24.1303 35.4833
CA 29.7495 22.4204 71.7243
CA 2.04771 13.2943 67.8775
CA 2.01128 16.9776 20.0851
CA 11.778 23.8695 59.8152
CA 14.7872 26.8957 65.8999
CA 15.0274 26.8861 38.0299
CA 29.454 -3.18033 63.8098
CA 16.8541 34.5554 55.9391
CA 5.3328 24.6805 60.2921
CA -10.4795 14.7305 66.4771
CA -4.78882 28.0498 27.5183
CA 6.51758 27.6508 21.5704
CA -7.01783 23.7963 15.1884
CA 21.2259 32.5522 37.1144
CA 11.4429 -16.5978 52.2879
CA 23.9986 20.7187 53.2702
CA -9.45893 17.0402 14.5197
CA 0.386051 29.3589 25.7209
CA 4.65088 29.2374 30.3443
CA -2.63276 12.3653 32.6672
CA -8.60417 26.5889 33.4013
CA -1.34832 30.9575 58.9282
CA 2.99201 -0.0249303 53.2957
CA 7.26341 -7.82999 58.4324
CA -15.1578 18.5713 18.1076
CA -14.0765 12.3318 69.4834
CA 3.65331 16.3332 68.4354
CA 1.59562 30.875 43.1816
CA 18.1576 30.6402 56.5477
CA -3.61771 33.6377 23.2411
CA 21.1778 32.0851 34.7106
CA -12.0499 21.2275 17.2179
CA 19.3192 31.5214 36.5223
CA -5.24372 15.4575 66.8629
CA -8.8051 14.7679 38.2361
CA 22.4824 15.6682 62.1083
CA 24.3686 0.391595 72.8366
CA 19.0697 11.0096 70.2658
CA -1.25941 16.5369 69.8097
CA 4.53945 26.1498 74.125
CA 15.9109 22.2599 36.7341
CA 24.818 0.859798 64.5496
CA -5.22807 19.2224 39.9062
CA -1.29835 29.6888 52.9556
CA -15.0339 8.90038 72.325
CA -4.317 -2.4582 54.1822
CA -5.64984 29.9257 18.8569
CA 4.12306 29.3076 39.4485
CA 18.7504 3.00141 33.5184
CA -6.40993 -3.4476 83.3558
CA 4.17224 17.5097 42.0419
CA 11.4775 18.1231 25.6019
CA 15.2205 22.3041 34.3718
CA 32.4519 34.1419 59.3048
CA -11.1062 3.77914 47.3559
CA -14.3752 31.1773 15.093
CA 20.1257 12.2096 68.1725
CA 0.80213 26.3593 55.1392
CA 5.03192 -8.78732 56.4769
CA 18.5552 7.50005 32.8547
CA 14.0491 17.1273 38.8524
CA 19.9742 34.692 34.3345
CA -6.07344 29.8163 24.0911
CA -0.255552 28.0377 54.8672
CA -16.9142 20.5157 36.2237
CA -7.33776 40.8749 18.6209
CA 14.009 9.03973 70.0915
CA 33.2278 29.6061 71.6923
CA 20.0977 12.2026 48.2417
CA 19.9317 27.7688 38.2959
CA 20.5235 1.76233 54.2002
CA -0.876334 18.4297 36.9634
CA 4.35305 1.99855 55.6999
CA 5.4941 29.7207 69.5337
CA -3.46602 30.5237 14.9891
CA -4.29046 18.6459 80.7128
CA -2.10747 24.0764 35.6664
CA 19.2319 6.15652 76.8291
CA 1.14976 28.5628 16.3447
CA -4.43136 20.42 49.2908
CA 20.1727 31.7017 38.531
CA 1.98113 9.62331 66.2244
CA -1.78429 26.0326 58.8924
CA 7.8859 -19.651 64.9334
CA 13.9652 27.4242 71.6572
CA 11.9403 -19.2409 52.7905
CA 22.4121 13.6311 69.5592
CA -10.4268 23.2068 16.9244
CA 3.54149 34.9838 58.4729
CA 24.409 21.0438 56.2205
CA 5.69927 -14.9071 53.9102
CA -11.8107 18.4295 16.9766
CA -2.39642 12.3496 28.8413
CA 19.4758 29.1515 74.4709
CA -2.15456 16.0816 65.2099
CA 25.9391 19.8461 57.3856
CA 28.505 18.1938 74.5806
CA 15.9966 25.1339 72.4167
CA 25.2774 1.33878 61.5832
CA 0.271704 25.3195 75.1494
CA 22.0767 32.6785 59.3085
CA -1.83708 30.3817 16.3138
CA 2.81962 25.9431 39.0091
CA 4.12015 31.4339 48.5266
CA -2.39476 23.0191 55.6308
CA 17.9103 10.239 34.6487
CA 23.3126 16.8695 81.6386
CA 18.5065 34.9557 70.4373
CA -11.832 -0.605148 56.1795
CA 0.492829 30.5153 15.9571
CA 5.99115 23.1006 62.5613
CA -13.3103 6.32371 40.1511
CA 12.0725 30.5566 78.371
CA 29.158 8.07565 42.6905
CA -1.59767 15.2168 71.5788
CA -1.43719 16.503 77.3887
CA 14.2907 4.92082 38.5742
CA 7.44933 14.3833 56.3396
CA 28.7198 -1.75826 67.1656
CA 2.86968 28.7772 41.5236
CA -0.391499 17.8346 21.8212
CA -13.5641 16.0595 69.9942
CA 18.737 31.9198 52.2754
CA 10.2475 17.4173 71.0589
CA 27.9497 15.6084 81.812
CA 13.7816 15.1656 27.2123
CA -1.14795 21.3983 17.1919
CA -5.75665 25.8239 44.7017
CA 6.2161 -14.747 52.1464
CA 24.0631 11.1693 68.0694
CA 19.7662 23.3924 41.5679
CA -5.99772 30.2667 51.9117
CA -2.72878 19.0573 39.1318
CA 14.5798 3.81201 50.8087
CA 24.833 9.28952 81.9931
CA -6.25064 25.8892 57.4419
CA 2.31973 19.0765 43.6632
CA 15.6612 11.3748 74.6648
CA -3.16972 19.7207 37.3142
CA 3.89097 21.1554 42.2943
CA 3.89931 26.2815 30.6666
CA 10.6751 7.73456 71.8259
CA 0.998693 13.3571 60.143
CA 21.4379 23.6797 63.0736
CA -12.3233 5.58931 76.7086
CA 19.9621 7.25603 64.6723
CA 0.518777 29.7167 39.8943
CA 13.114 20.1646 23.835
CA -6.185 34.9959 47.5162
CA 15.2522 24.9234 31.9071
CA -2.24985 18.252 70.1549
CA 21.6051 27.2675 59.0908
CA 4.08922 -4.59725 55.1392
CA 5.30768 24.0075 56.4671
CA 23.5116 2.77983 71.1918
CA -5.54192 9.21994 57.4358
CA 0.993131 18.2983 73.8168
CA 0.918964 -4.67722 50.9566
CA 29.0906 20.3026 65.5377
CA 21.2083 -3.4045 60.5482
CA -9.74873 27.9329 50.366
CA -13.5152 14.088 68.3736
CA 22.6722 13.6239 76.4204
CA -5.03886 22.9586 37.5371
CA -0.605317 14.1579 41.7994
CA 9.64312 3.18682 53.2759
CA -16.0371 10.6308 68.4076
CA 3.177 12.4745 41.1742
CA -10.4474 7.42519 75.5908
CA 23.3656 7.86792 41.2488
CA -0.507625 -16.195 48.884
CA 25.4143 25.3084 54.5443
CA 19.1225 22.0605 38.6046
CA -2.64774 24.9365 73.9739
CA 31.8374 1.12803 66.1123
CA 5.4162 27.2288 56.2643
CA 1.06656 -14.4035 49.5913
CA 19.8997 -4.99268 60.2801
CA -12.9047 11.1107 68.776
CA 4.6955 -11.8719 57.968
CA -5.04451 20.6189 37.7871
CA 13.9513 2.37338 40.8345
CA -11.2358 -0.495968 75.626
CA -3.1692 26.0529 30.6367
CA -7.7359 24.3792 47.4503
CA 25.8371 28.5842 58.3307
CA -20.7986 -0.90494 30.6511
CA -7.50051 17.6981 38.5764
CA -5.26407 32.2887 24.6226
CA 2.33332 11.1424 59.9148
CA -9.454 11.4888 66.5602
CA 18.7279 16.9551 54.4268
CA 6.81839 -3.46844 54.5694
CA 30.3448 33.7149 57.5839
CA -2.15561 19.124 44.9276
CA -10.4112 22.8063 60.453
CA 21.6477 37.6226 70.6402
CA -15.4467 -6.67184 75.5262
CA 20.2814 18.2974 58.1332
CA -13.2394 3.88228 36.1236
CA 6.96804 7.08707 25.1369
CA -4.73619 15.4646 14.3752
CA 26.6272 -0.81888 64.8954
CA 15.6494 13.2608 57.0886
CA -5.88292 32.5834 17.104
CA 13.7587 17.2813 41.0018
CA 19.653 16.6713 56.3562
CA -13.2446 27.8773 23.7226
CA -1.37021 39.5113 20.7712
CA 2.31592 -15.3745 46.8861
CA 23.02 -6.02954 60.6119
CA -1.01876 30.1859 43.869
CA 2.47419 29.4725 71.7069
CA 3.31827 0.645337 50.015
CA -12.7862 -3.64355 74.6299
CA -1.07112 -2.59413 55.1492
CA -14.0777 0.503991 51.2651
CA 23.804 21.9435 74.4854
CA 0.141185 20.3507 40.975
CA -7.23527 3.45424 47.0608
CA 18.1174 15.0824 56.6922
CA 0.467672 17.7455 30.9769
CA -0.149542 13.594 33.1457
CA -0.86217 26.9492 49.2121
CA 2.23865 15.1201 69.7676
CA 28.9795 -2.05824 58.2113
CA -3.07231 21.5728 36.0647
CA 4.33007 28.2783 17.4395
CA 24.3345 6.07651 57.6722
CA -6.6797 34.6003 49.6931
CA -5.78987 33.9055 26.1677
CA -0.14434 3.79889 56.2609
CA 20.2588 4.6629 48.5392
CA 3.01736 29.434 45.7772
CA -2.49672 37.2278 14.5697
CA 20.5332 5.5523 69.5144
CA 1.03086 24.4272 71.2045
CA -8.44985 13.5617 20.893
CA 22.4545 -5.17546 58.0351
CA 12.275 12.5817 36.1581
CA 28.566 1.11472 59.6906
CA -10.6009 8.12519 72.4648
CA 19.8624 10.278 38.8896
CA 4.9979 26.6684 60.7759
CA -10.1257 2.49074 77.2782
CA 1.15366 -5.83367 61.415
CA -8.77477 16.1031 42.5144
CA 2.25695 24.2863 19.7833
CA -1.67531 22.5397 26.9645
CA 7.02451 -9.59823 65.6565
CA 5.83234 21.145 69.0659
CA 20.4568 4.71493 59.7171
CA 18.2309 18.5109 42.5803
CA 19.3673 22.3568 75.7912
CA -13.4264 1.32036 35.3677
CA 15.3495 16.4302 27.2517
CA -9.34774 22.0386 65.6564
CA -14.1071 19.4878 20.8655
CA -6.60915 23.7831 65.6201
