489

CA -5.26579 9.53679 42.3992
CA 30.6869 38.3047 57.2167
CA 5.25494 29.8223 41.505
CA 5.71951 25.0268 65.8973
CA 20.2585 34.7721 78.7401
CA 25.3315 24.327 77.4012
CA 20.6406 34.3155 45.0999
CA 11.8867 6.0045 40.8304
CA -4.12622 10.4641 65.8814
CA 13.6539 14.9216 38.7632
CA 26.3816 30.0121 66.8962
CA 0.801638 16.3382 26.4755
CA -8.67829 14.7426 66.6357
CA 16.1752 28.9897 76.2062
CA 2.60252 19.3282 27.1315
CA 20.4861 8.20856 45.3056
CA 14.785 30.6485 73.9495
CA 18.4607 11.5631 73.0338
CA -2.64172 35.8036 14.2084
CA 18.7618 22.3226 34.6255
CA 7.08793 13.1725 57.7869
CA 1.06305 33.2668 48.5205
CA 8.45696 -12.6556 52.9543
CA -11.9196 30.9135 15.6311
CA -9.16289 30.7627 15.468
CA -1.53461 11.3895 70.6856
CA -18.6679 11.7771 70.5983
CA -0.809998 23.0651 58.7667
CA 21.3245 32.5061 56.4119
CA 0.289646 25.9368 61.6038
CA 11.1788 20.6356 29.3471
CA 0.276942 14.0611 34.1254
CA -15.5283 0.09772 35.0826
CA -3.52425 25.2742 56.1439
CA -3.58415 24.2324 34.2534
CA 13.1157 29.9101 71.2604
CA 25.1318 -3.09173 72.989
CA 2.28016 22.6083 73.1775
CA 3.75825 -12.953 48.2031
CA 17.0399 27.7898 64.463
CA -14.292 5.24414 57.6332
CA 31.5238 10.1164 44.1093
CA -7.5201 5.24804 72.5193
CA -12.2509 25.101 15.0634
CA -15.6707 10.6679 65.4147
CA -4.07634 22.1628 80.6434
CA 15.7482 5.3269 48.4638
CA -4.62422 17.7734 76.5792
CA 0.723014 9.03613 53.1648
CA -9.92982 3.87145 75.4067
CA 14.763 11.2341 70.8059
CA 27.5543 16.6597 83.582
CA 27.8943 13.6083 41.9948
CA -3.97824 20.7442 75.6389
CA 22.5385 28.5169 70.0456
CA 0.551836 29.3457 63.689
CA 0.485078 19.5431 12.8615
CA 6.73269 25.1213 54.9992
CA -12.7448 11.3791 66.7774
CA 25.4508 25.8773 68.3328
CA -17.5239 4.40235 39.8922
CA -13.1203 9.2303 55.9508
CA 7.70248 20.7666 32.6089
CA 17.1764 23.6705 32.2219
CA -2.44186 32.7429 55.9681
CA 19.3349 25.2217 33.5465
CA 16.7397 27.676 34.4014
CA 12.6044 9.53542 71.4119
CA -4.04544 21.1005 16.5167
CA -8.89097 22.9822 44.1425
CA -4.69869 36.1647 17.8458
CA 21.0828 22.2772 38.7887
CA 3.10109 20.0243 14.8549
CA 6.19917 -13.5516 58.5303
CA 2.33253 -3.01155 53.0399
CA 4.28041 29.2048 60.8796
CA 12.3173 18.1959 28.0235
CA 23.2296 23.3391 53.3235
CA 1.83481 28.7627 38.1818
CA 14.4433 32.4714 53.6228
CA -11.6992 5.29052 43.6448
CA 11.9019 28.9786 61.4587
CA 8.43914 7.12611 74.7885
CA 18.2686 6.69635 73.9033
CA -0.180876 -15.4683 50.7451
CA -2.08035 29.1563 50.8727
CA 29.5668 33.2723 65.004
CA -15.5579 0.616596 46.0041
CA -8.05798 15.1126 69.7943
CA 28.24 2.82009 69.549
CA 20.088 33.5403 39.3066
CA -13.363 12.2432 46.0541
CA 26.6591 3.20278 59.2693
CA 1.94622 31.8564 60.8304
CA 26.8559 10.0809 66.3855
CA 9.15327 15.0568 29.4584
CA 17.8135 21.4944 75.1093
CA 1.79073 34.5121 78.6729
CA -2.59116 17.8892 78.2759
CA 5.57817 31.009 67.1307
CA -1.16686 -13.6369 50.9457
CA 28.6635 31.8904 67.4943
CA 23.4942 17.7518 76.2347
CA 4.49197 -4.36719 59.2457
CA 27.6636 -1.65513 60.0598
CA -5.14216 -5.24541 83.3049
CA 3.92463 38.7101 27.6518
CA -1.78679 27.8423 53.4405
CA 6.36641 9.37789 48.8393
CA -1.08917 33.8879 49.8736
CA -2.79477 26.1151 64.9122
CA -6.25587 -3.56941 86.5043
CA 4.08828 -9.86359 62.3093
CA 3.36453 24.0924 38.3132
CA 10.9247 9.68991 72.7999
CA 4.49322 12.8703 46.2998
CA -16.1145 8.92743 69.6895
CA 2.60396 -2.35747 63.3241
CA 0.541536 20.2599 49.072
CA 20.389 24.9935 41.0439
CA 13.2906 19.6613 27.6094
CA -15.8918 27.6437 20.7237
CA 1.45051 30.4615 32.399
CA 12.5505 29.5942 69.0643
CA 8.61239 17.9063 33.5681
CA 33.8973 30.1882 68.8119
CA -7.41567 9.98678 52.1232
CA -1.85106 16.8424 59.7528
CA -6.34692 22.5397 80.139
CA 0.181812 26.0998 58.6408
CA 27.7101 25.5658 57.9601
CA 31.8341 -2.17566 61.7089
CA 22.4885 13.4334 79.5385
CA 18.7445 25.5978 65.4375
CA 15.4934 24.9771 36.7624
CA 16.1328 28.8401 32.6527
CA -0.0109747 16.3874 32.0575
CA 0.523615 29.2054 44.198
CA 18.2178 26.0767 61.6361
CA 22.9105 31.9343 50.2504
CA -4.78389 27.3718 64.1431
CA 5.16047 30.0572 17.1814
CA 20.1915 13.1101 59.0326
CA 10.3229 19.4329 42.4324
CA 11.6618 34.6869 74.0838
CA 8.21291 25.8012 58.8182
CA -2.15434 15.0746 8.89506
CA 29.9125 0.535204 71.9466
CA 8.27751 29.2247 28.9995
CA 0.756029 4.53041 68.4677
CA 3.23935 30.2893 56.6209
CA 12.8195 30.9592 75.5064
CA 6.46807 20.4799 57.6334
CA -12.4865 11.991 44.018
CA 20.8654 26.8013 32.8119
CA 24.188 20.8082 56.6397
CA 19.1285 35.169 73.1535
CA 25.3151 11.1658 44.9452
CA -12.2062 -1.64419 48.5116
CA 24.8962 -1.62685 76.5836
CA -15.085 14.2032 19.7922
CA -3.68194 28.5607 55.2035
CA 19.7498 28.1697 62.5261
CA 20.8637 2.04835 66.6997
CA 2.09449 30.6402 62.7993
CA 1.93262 33.6232 14.3076
CA 6.67734 28.2278 23.9756
CA 15.4477 8.74647 44.5012
CA -4.16387 9.34228 53.96
CA -6.78853 -8.99399 85.062
CA 25.0069 14.0531 47.8448
CA -14.976 23.847 18.353
CA 1.83827 -16.646 48.3048
CA 10.2574 27.1555 56.6378
CA 4.46687 8.08051 51.2323
CA 26.9524 28.321 55.6947
CA 29.0734 -0.950771 65.2604
CA 16.9762 7.28342 50.2815
CA 18.3805 19.634 39.0286
CA -8.86372 30.1459 22.0407
CA 22.2989 -1.00614 65.4345
CA 17.2372 24.7439 38.2273
CA 8.4486 13.6161 45.8569
CA 29.1544 26.1232 70.6948
CA 10.9043 25.0703 72.8567
CA 8.6623 31.427 39.3378
CA 28.3282 14.0485 57.143
CA 14.9957 7.06881 49.4713
CA 14.4266 20.8371 41.1159
CA -2.50634 33.097 14.2321
CA -1.27441 17.4133 73.6493
CA 11.4959 23.4863 31.8805
CA -3.08841 16.373 40.2141
CA 12.1896 4.59164 34.0097
CA -7.42066 30.8029 14.8382
CA 10.1999 34.0101 36.1846
CA -14.969 1.61778 54.2496
CA 11.202 11.9543 31.216
CA -1.28571 22.6007 21.0253
CA 25.8896 22.306 70.4181
CA 20.5442 12.5883 42.8156
CA -2.78096 34.8826 57.4435
CA 4.62003 16.4284 31.278
CA 15.2739 10.0716 72.4787
CA 20.0997 9.33476 64.5291
CA -14.1948 -0.334004 30.7492
CA 20.6648 37.2644 40.0092
CA 0.278981 8.16879 65.4037
CA 14.0773 6.16936 44.6579
CA -7.88193 27.2454 17.9766
CA -0.0715092 24.3174 34.4752
CA -4.09414 26.5426 54.6006
CA 9.41554 32.2945 58.4989
CA 8.90279 19.1254 69.2416
CA 6.82648 13.2571 42.9449
CA 20.1915 31.5036 58.916
CA 4.1018 30.4113 51.8716
CA 14.2129 8.27593 41.9676
CA -2.75457 41.0183 19.9327
CA -2.47218 17.4988 24.7398
CA 8.91963 9.56761 28.1657
CA -5.00573 21.3698 35.6649
CA -2.65289 5.408 71.0382
CA 19.6427 25.9963 63.0157
CA 2.09926 33.7102 52.7557
CA 27.8668 23.8747 69.1643
CA -19.356 23.7671 15.5874
CA 3.97797 37.1795 19.98
CA 8.44744 16.502 67.1209
CA 19.0771 22.3554 73.43
CA 1.809 24.779 25.8041
CA 2.37764 19.0065 13.2055
CA 2.01128 16.9776 20.0851
CA 17.3791 14.2387 25.5789
CA 14.7872 26.8957 65.8999
CA -1.65794 20.9746 57.908
CA -11.3391 13.9298 68.4765
CA 16.8541 34.5554 55.9391
CA 5.3328 24.6805 60.2921
CA -10.4795 14.7305 66.4771
CA -4.78882 28.0498 27.5183
CA 6.51758 27.6508 21.5704
CA -7.01783 23.7963 15.1884
CA -0.159699 14.5888 70.5808
CA 26.3854 27.3941 69.5241
CA -16.3143 24.5868 15.8059
CA 3.61538 17.8714 39.2699
CA -4.04623 14.2409 41.1379
CA 24.0305 25.7425 63.1213
CA 0.424934 27.8911 32.1306
CA 12.8575 10.3739 45.7547
CA -1.34832 30.9575 58.9282
CA 15.4438 7.73418 51.1468
CA 7.26341 -7.82999 58.4324
CA -15.1578 18.5713 18.1076
CA 3.09174 20.4524 20.7784
CA 9.67518 17.3101 69.2587
CA 17.9586 19.2116 28.3665
CA -14.3354 23.2096 20.8855
CA 29.6509 9.70955 44.4875
CA 18.7152 23.0504 77.9729
CA 9.31678 26.6539 21.8009
CA -1.31525 10.2722 42.4745
CA 4.13612 4.18018 66.4716
CA -8.8051 14.7679 38.2361
CA 30.79 2.56469 68.1518
CA 24.3686 0.391595 72.8366
CA 19.0697 11.0096 70.2658
CA -1.25941 16.5369 69.8097
CA -12.0559 9.30563 43.6774
CA 20.4289 1.99558 30.9347
CA -13.8132 11.3772 18.3764
CA 7.43374 17.331 69.9711
CA 21.2143 26.1427 76.6857
CA 4.97297 16.9534 68.7813
CA -1.86784 21.5388 33.1673
CA -5.64984 29.9257 18.8569
CA -10.0231 9.49671 56.1744
CA 2.53697 18.2277 68.8745
CA -6.40993 -3.4476 83.3558
CA 4.17224 17.5097 42.0419
CA -10.9423 3.47857 38.2218
CA -5.35914 23.3229 67.4889
CA 32.4519 34.1419 59.3048
CA -11.1062 3.77914 47.3559
CA -4.80451 30.2538 16.3192
CA 20.1257 12.2096 68.1725
CA 9.86365 15.4489 44.3019
CA 17.3613 29.1835 35.6836
CA 13.256 6.57881 43.1084
CA 8.46227 34.0819 72.8084
CA 19.9742 34.692 34.3345
CA 18.4253 30.77 35.023
CA -0.255552 28.0377 54.8672
CA 18.2236 25.742 39.6394
CA 30.2284 29.6107 71.0346
CA 17.1501 16.9949 41.5991
CA 15.9744 22.6611 83.9978
CA 3.17609 17.9384 74.7315
CA 19.9317 27.7688 38.2959
CA -7.08802 27.8303 11.4948
CA -0.876334 18.4297 36.9634
CA 3.42612 -13.9959 52.4245
CA 2.28332 -5.84277 53.0818
CA 25.8806 14.4161 80.283
CA -4.29046 18.6459 80.7128
CA 23.3207 14.3007 76.6759
CA -14.9176 12.7019 21.7046
CA 5.48934 -6.59778 58.5034
CA -4.43136 20.42 49.2908
CA 20.1727 31.7017 38.531
CA -0.787056 29.3292 77.1049
CA 12.0296 18.6633 32.449
CA -9.1463 27.2723 13.1568
CA 22.3586 12.1718 72.9515
CA 14.0012 37.1683 69.778
CA -8.27526 21.2707 72.9232
CA -10.4268 23.2068 16.9244
CA 3.54149 34.9838 58.4729
CA 20.5425 27.7863 36.3128
CA -6.12097 23.6337 63.0572
CA 6.65715 22.5769 59.0925
CA 26.8187 16.5108 81.0429
CA -5.07635 32.2222 30.2677
CA -2.15456 16.0816 65.2099
CA -5.56157 24.186 36.0157
CA 20.158 0.23762 67.792
CA 10.4105 15.7581 69.8423
CA 25.2774 1.33878 61.5832
CA 0.271704 25.3195 75.1494
CA 22.0767 32.6785 59.3085
CA -1.83708 30.3817 16.3138
CA 2.81962 25.9431 39.0091
CA -8.69093 28.5475 16.9989
CA -2.39476 23.0191 55.6308
CA 4.06442 31.7505 55.0164
CA 23.3126 16.8695 81.6386
CA 18.5065 34.9557 70.4373
CA -11.832 -0.605148 56.1795
CA 6.52276 22.6007 54.5331
CA 4.22392 26.3131 53.4732
CA -13.3103 6.32371 40.1511
CA 23.1042 -6.97233 57.0498
CA 29.158 8.07565 42.6905
CA -1.59767 15.2168 71.5788
CA -1.43719 16.503 77.3887
CA 14.2907 4.92082 38.5742
CA 7.44933 14.3833 56.3396
CA -5.92068 12.6938 67.6619
CA 1.75769 26.1208 76.9338
CA 18.3777 7.57466 51.8384
CA 28.7103 6.27626 66.5742
CA 2.91805 -14.5773 47.9881
CA 10.2475 17.4173 71.0589
CA 24.1856 13.1881 66.2275
CA 19.4643 33.7978 68.9654
CA -1.14795 21.3983 17.1919
CA -5.75665 25.8239 44.7017
CA -0.0703953 20.7846 72.9913
CA 24.0631 11.1693 68.0694
CA 19.5112 26.2722 70.494
CA -16.6016 19.3802 38.0394
CA 24.0562 25.9159 78.4426
CA -12.0326 1.95049 53.5693
CA 29.3283 34.5729 60.2428
CA 14.7927 22.7503 35.9648
CA -21.5834 19.771 15.7497
CA 23.4837 15.2179 40.1987
CA 12.0531 29.9368 73.6242
CA 29.7261 5.29857 70.1405
CA 15.732 6.40495 38.2905
CA 10.6751 7.73456 71.8259
CA -6.39193 15.7221 41.9507
CA 9.13767 20.828 61.9095
CA -4.30399 28.1208 22.2304
CA 7.55459 11.996 47.2307
CA -10.3769 2.53798 54.5348
CA 13.114 20.1646 23.835
CA -13.7391 13.0333 64.8399
CA -4.65742 37.2295 15.2473
CA -2.24985 18.252 70.1549
CA 21.6051 27.2675 59.0908
CA 30.7691 8.40973 72.4914
CA 5.30768 24.0075 56.4671
CA -10.8677 25.6409 19.2846
CA -5.54192 9.21994 57.4358
CA 3.7085 5.09494 55.2792
CA 24.9136 13.4931 75.41
CA -8.11536 30.7348 20.4381
CA 21.2083 -3.4045 60.5482
CA -5.61071 24.7077 64.6163
CA -16.9278 -0.98783 46.378
CA 4.80469 0.0837477 63.739
CA -5.03886 22.9586 37.5371
CA -0.605317 14.1579 41.7994
CA -13.6252 14.4591 17.9565
CA 1.83469 32.2389 55.0307
CA 26.4953 11.3629 69.3942
CA 0.561437 21.1877 20.335
CA 23.3656 7.86792 41.2488
CA -0.507625 -16.195 48.884
CA 19.9276 29.2637 59.2809
CA 25.3321 31.5407 54.5784
CA 17.9068 27.4093 69.9718
CA 31.8374 1.12803 66.1123
CA 5.4162 27.2288 56.2643
CA 1.06656 -14.4035 49.5913
CA 19.8997 -4.99268 60.2801
CA 22.7922 23.8088 57.6348
CA 27.9878 15.3685 74.1179
CA 21.2867 30.4437 53.5166
CA 17.7973 21.2045 40.1372
CA -11.2358 -0.495968 75.626
CA -3.1692 26.0529 30.6367
CA -7.7359 24.3792 47.4503
CA 27.8166 -0.540784 70.7931
CA 3.19574 32.3941 66.562
CA 3.77109 13.2534 52.7162
CA 17.1479 34.8353 34.7574
CA -3.62478 33.3343 16.1633
CA 18.5165 16.4111 59.3711
CA 18.7279 16.9551 54.4268
CA -6.32062 29.6815 33.4169
CA -6.6044 25.07 19.9936
CA -2.15561 19.124 44.9276
CA -4.40672 21.1115 67.7809
CA -17.1147 12.4869 67.1307
CA 9.19001 26.0292 79.6063
CA 17.2378 29.1675 62.8377
CA -13.2394 3.88228 36.1236
CA 6.96804 7.08707 25.1369
CA -7.54815 20.5059 74.9728
CA 26.6272 -0.81888 64.8954
CA 2.90783 28.4344 44.1166
CA -5.88292 32.5834 17.104
CA -1.03399 16.3846 9.97877
CA 2.26343 -4.85208 57.1852
CA 9.99823 30.6889 24.7183
CA 1.79867 11.7208 74.1464
CA 18.0674 27.8454 29.6508
CA 23.02 -6.02954 60.6119
CA 0.921798 28.3069 50.6938
CA 2.47419 29.4725 71.7069
CA 0.860814 30.466 76.0496
CA -12.7862 -3.64355 74.6299
CA 2.16546 14.7547 57.0342
CA -14.0777 0.503991 51.2651
CA 23.804 21.9435 74.4854
CA 0.141185 20.3507 40.975
CA 17.6738 10.1384 63.7729
CA -13.8567 11.3062 39.3982
CA -6.1049 27.172 22.8827
CA 16.0971 36.2873 31.4706
CA -7.52783 22.8445 71.6589
CA 6.2837 5.26813 48.8624
CA 9.35267 31.6781 70.087
CA -3.07231 21.5728 36.0647
CA 5.41483 20.496 15.4611
CA -5.43909 11.7011 57.5642
CA -16.6431 1.15701 49.284
CA 14.1109 21.4725 34.1173
CA 0.0134489 -4.52128 53.2799
CA 12.6752 18.6676 60.1199
CA 22.0145 14.9733 42.5303
CA 18.1881 -4.29373 61.4231
CA 20.5332 5.5523 69.5144
CA 16.5187 25.141 35.0343
CA 0.924417 19.6804 39.0922
CA 22.4545 -5.17546 58.0351
CA 22.6334 14.0358 61.5868
CA 21.0017 -2.86204 79.3297
CA 6.68038 -7.00421 56.5018
CA 19.8624 10.278 38.8896
CA 18.0713 33.9473 36.5374
CA 4.43494 35.8261 15.1643
CA -1.73132 19.5802 71.7323
CA 19.493 17.2421 41.8382
CA 20.8697 17.1786 57.5887
CA 4.65516 5.61306 25.2409
CA 7.02451 -9.59823 65.6565
CA 5.83234 21.145 69.0659
CA 29.3579 2.41871 65.5689
CA 18.2309 18.5109 42.5803
CA 27.716 11.2369 44.7447
CA -13.4264 1.32036 35.3677
CA 15.3495 16.4302 27.2517
CA -6.63889 33.6129 58.0254
CA 7.86033 -7.96867 54.5128
CA -9.98485 32.4547 58.2559
