489

CA -11.0766 9.52193 57.9469
CA -14.2493 -1.26321 42.7289
CA 5.25494 29.8223 41.505
CA 5.71951 25.0268 65.8973
CA 23.2903 29.7885 58.646
CA -11.6373 23.8667 18.0749
CA -5.06519 24.7336 17.4817
CA -9.82382 11.168 63.649
CA -4.12622 10.4641 65.8814
CA 24.2031 16.811 56.767
CA 26.3816 30.0121 66.8962
CA 7.80961 -5.98868 55.3302
CA 19.8427 34.2219 43.7994
CA 16.1752 28.9897 76.2062
CA 2.60252 19.3282 27.1315
CA 26.8672 3.96095 65.2737
CA 16.0693 20.0527 27.5723
CA 19.4023 5.33156 73.227
CA -6.71215 17.9115 77.6099
CA 22.8455 29.8358 63.2772
CA -2.69916 17.5087 82.4515
CA 26.1654 28.1883 62.7642
CA 8.45696 -12.6556 52.9543
CA 16.7646 33.0766 29.069
CA -7.71616 33.3535 15.5997
CA -15.9128 0.397033 45.0443
CA -14.4196 9.10478 47.8048
CA -0.809998 23.0651 58.7667
CA -0.36591 6.49896 63.8619
CA 0.289646 25.9368 61.6038
CA 11.1788 20.6356 29.3471
CA 22.5754 2.82753 29.511
CA 19.6092 26.8151 58.8006
CA -2.93388 31.4312 18.3
CA 26.519 32.0611 66.87
CA -5.22894 30.6419 19.5142
CA -5.47241 30.2871 57.0283
CA 2.28016 22.6083 73.1775
CA 3.75825 -12.953 48.2031
CA 23.8464 30.0138 78.7509
CA 21.3282 29.3231 65.5392
CA 19.8225 2.64926 60.6051
CA 0.714914 25.9548 29.1355
CA -12.2509 25.101 15.0634
CA -15.6707 10.6679 65.4147
CA -4.07634 22.1628 80.6434
CA 7.50488 20.936 65.2701
CA 10.0103 11.9255 29.666
CA 0.723014 9.03613 53.1648
CA -9.92982 3.87145 75.4067
CA -9.17251 23.4039 14.3921
CA 34.0301 5.27936 66.8663
CA 27.8943 13.6083 41.9948
CA 24.5119 30.8687 68.8497
CA 22.5385 28.5169 70.0456
CA 0.551836 29.3457 63.689
CA 30.2326 36.3497 65.9458
CA 19.5941 14.0432 56.4524
CA 3.75549 15.7978 65.1905
CA 25.4508 25.8773 68.3328
CA -17.5239 4.40235 39.8922
CA -13.1203 9.2303 55.9508
CA 7.70248 20.7666 32.6089
CA 8.86719 30.7283 81.5751
CA 27.8373 -4.75162 56.7522
CA 19.3349 25.2217 33.5465
CA 16.7397 27.676 34.4014
CA 16.8345 30.9035 60.1332
CA 17.6902 36.3671 70.508
CA -1.50092 14.5648 66.1607
CA -2.41948 19.6819 39.2854
CA 17.7862 11.5747 58.1102
CA 3.10109 20.0243 14.8549
CA 3.14346 19.4673 40.2532
CA 0.8562 28.5455 57.7362
CA 4.28041 29.2048 60.8796
CA -6.58092 10.1777 63.3466
CA 23.2296 23.3391 53.3235
CA 1.83481 28.7627 38.1818
CA -14.5313 20.2356 19.6533
CA -11.6992 5.29052 43.6448
CA 11.9019 28.9786 61.4587
CA 19.7395 -3.85545 51.3505
CA 18.2686 6.69635 73.9033
CA 17.8205 18.2273 57.9323
CA -2.08035 29.1563 50.8727
CA -9.56332 28.9428 60.201
CA -6.28301 14.1273 62.9887
CA 8.95531 -0.806477 65.1541
CA 33.1512 2.60585 67.211
CA 20.088 33.5403 39.3066
CA 19.3469 28.4786 39.8546
CA 19.462 -3.08395 59.2202
CA 12.9963 25.3891 35.4522
CA 26.8559 10.0809 66.3855
CA 9.15327 15.0568 29.4584
CA 17.8135 21.4944 75.1093
CA 1.79073 34.5121 78.6729
CA -2.59116 17.8892 78.2759
CA 5.57817 31.009 67.1307
CA -18.4797 27.6703 20.9946
CA -10.7919 11.0209 48.3289
CA 23.4942 17.7518 76.2347
CA -9.3392 15.6222 49.6133
CA 2.99266 32.9868 51.4313
CA -6.6188 19.8367 73.5442
CA -4.50327 20.4997 76.3501
CA -1.78679 27.8423 53.4405
CA 6.36641 9.37789 48.8393
CA 2.15148 28.2873 63.2476
CA -3.43216 36.6532 19.2631
CA -6.25587 -3.56941 86.5043
CA 4.08828 -9.86359 62.3093
CA -15.8306 -3.95633 34.926
CA 19.8265 -3.58145 62.7747
CA 4.49322 12.8703 46.2998
CA -16.1145 8.92743 69.6895
CA 2.60396 -2.35747 63.3241
CA 0.541536 20.2599 49.072
CA -13.2017 15.4295 44.1464
CA 13.2906 19.6613 27.6094
CA -15.8918 27.6437 20.7237
CA 1.45051 30.4615 32.399
CA 2.04992 17.8787 43.3834
CA 12.5519 26.0119 73.8678
CA 18.7528 10.7729 43.3521
CA -7.41567 9.98678 52.1232
CA -1.85106 16.8424 59.7528
CA -6.34692 22.5397 80.139
CA 0.181812 26.0998 58.6408
CA -2.15602 10.9418 65.0149
CA 23.0733 28.8598 76.3331
CA -7.20051 8.0344 57.2746
CA 18.7445 25.5978 65.4375
CA 15.4934 24.9771 36.7624
CA 16.1328 28.8401 32.6527
CA -18.9395 6.65683 56.2855
CA 1.49465 3.29462 64.4061
CA 13.8529 31.4534 57.1291
CA 22.9105 31.9343 50.2504
CA 10.6755 11.8734 67.9904
CA 5.16047 30.0572 17.1814
CA 38.9345 7.40637 66.882
CA 10.3229 19.4329 42.4324
CA 1.64388 28.1548 59.808
CA 26.3392 13.7896 60.9112
CA 31.8867 -1.0844 66.308
CA 29.9125 0.535204 71.9466
CA -1.83363 25.6261 54.3845
CA -8.85587 24.8828 9.1923
CA -1.21863 5.56601 68.1728
CA 10.5928 35.9592 83.7165
CA -6.03676 21.7122 77.2896
CA -12.4865 11.991 44.018
CA 23.9079 27.1139 57.2129
CA 20.7608 14.9755 51.9839
CA 9.60111 22.725 36.3971
CA 25.3151 11.1658 44.9452
CA -12.2062 -1.64419 48.5116
CA 24.8962 -1.62685 76.5836
CA -15.085 14.2032 19.7922
CA 15.9049 24.6017 56.476
CA -0.10017 -4.5056 58.1014
CA 20.8637 2.04835 66.6997
CA 2.09449 30.6402 62.7993
CA 3.63712 17.036 67.6781
CA -11.815 12.4181 64.5862
CA 30.7101 0.0596778 65.0197
CA -4.16387 9.34228 53.96
CA -0.0585967 34.1956 30.3176
CA -4.83388 22.0068 70.6325
CA 24.9303 29.046 74.4678
CA 1.83827 -16.646 48.3048
CA 3.01402 22.0612 57.6634
CA 33.6298 11.4707 71.5996
CA 26.9524 28.321 55.6947
CA 20.0813 -1.94679 81.6978
CA -0.977579 35.9021 15.0361
CA 18.3805 19.634 39.0286
CA -16.4871 7.36747 46.0634
CA 22.2989 -1.00614 65.4345
CA -0.246188 19.6829 57.0171
CA 8.4486 13.6161 45.8569
CA 33.0519 -0.815237 69.0174
CA -5.88544 25.9089 29.9796
CA 8.6623 31.427 39.3378
CA 28.3282 14.0485 57.143
CA 14.9957 7.06881 49.4713
CA 2.04055 30.6859 57.8101
CA -2.50634 33.097 14.2321
CA 19.2115 37.3871 70.7789
CA 27.2659 1.48182 73.7562
CA 33.336 0.923445 68.4517
CA -4.27114 23.9679 82.5626
CA -7.42066 30.8029 14.8382
CA 5.15722 30.5409 54.0736
CA 24.8215 24.8338 38.1282
CA 11.202 11.9543 31.216
CA 32.806 0.070708 63.1748
CA 8.76655 37.5423 84.9395
CA 20.5442 12.5883 42.8156
CA -2.78096 34.8826 57.4435
CA 29.2526 -2.33854 70.8183
CA 16.9003 37.1974 72.2239
CA 17.845 39.0526 70.6425
CA 8.97897 27.2638 39.9005
CA 20.6648 37.2644 40.0092
CA 0.278981 8.16879 65.4037
CA 14.0773 6.16936 44.6579
CA -7.88193 27.2454 17.9766
CA 28.4653 14.3071 38.5909
CA 23.974 28.9318 60.9616
CA 9.41554 32.2945 58.4989
CA 8.90279 19.1254 69.2416
CA 6.82648 13.2571 42.9449
CA 0.991241 -3.42862 64.6569
CA 25.4855 -3.78957 77.1663
CA -6.60588 25.1158 81.354
CA 7.48279 17.3207 30.4789
CA 15.9917 23.1419 62.6239
CA 8.91963 9.56761 28.1657
CA 17.2416 31.854 70.6181
CA -5.21947 10.5276 68.1701
CA -15.0408 13.2288 65.2717
CA 18.3385 22.4822 42.3093
CA 21.6607 -4.71837 55.9902
CA -19.356 23.7671 15.5874
CA 22.9878 29.8669 66.6832
CA 8.44744 16.502 67.1209
CA 19.0771 22.3554 73.43
CA 1.809 24.779 25.8041
CA 2.37764 19.0065 13.2055
CA 9.57304 25.3123 58.3192
CA 17.3791 14.2387 25.5789
CA 23.2613 -6.75829 80.531
CA -6.678 16.4775 66.3885
CA -11.3391 13.9298 68.4765
CA 16.8541 34.5554 55.9391
CA 6.11645 32.5649 72.8401
CA 8.98217 26.7302 76.8656
CA -4.78882 28.0498 27.5183
CA 6.51758 27.6508 21.5704
CA -7.01783 23.7963 15.1884
CA -16.4736 -2.18764 31.9065
CA -17.5705 22.8714 16.3147
CA -16.3143 24.5868 15.8059
CA -0.0415404 21.2772 45.84
CA -5.04986 23.4403 74.8929
CA -3.60757 16.6401 42.5357
CA -3.40002 18.5565 76.2419
CA 12.8575 10.3739 45.7547
CA 9.42121 26.6671 82.1248
CA 2.05477 28.1545 55.5272
CA 7.26341 -7.82999 58.4324
CA -15.9172 25.5483 20.5588
CA 10.5603 33.2148 78.7977
CA 1.33265 27.1651 50.4508
CA -11.9924 18.2346 19.559
CA -6.47319 24.124 42.789
CA 9.01299 20.8594 51.8778
CA -12.8934 34.1535 15.6126
CA 23.6767 -0.439526 62.9112
CA -7.73702 13.0236 35.2611
CA 4.13612 4.18018 66.4716
CA -8.8051 14.7679 38.2361
CA 30.79 2.56469 68.1518
CA 1.87696 23.4261 58.0011
CA 18.0427 13.2063 54.745
CA -1.25941 16.5369 69.8097
CA -12.0559 9.30563 43.6774
CA 20.4289 1.99558 30.9347
CA 33.328 11.6292 73.9881
CA -10.7725 4.66197 36.3568
CA 21.2143 26.1427 76.6857
CA 11.0461 21.9637 35.0702
CA 10.6618 23.5101 31.0561
CA 31.5303 39.3291 66.6402
CA 25.8716 21.4871 57.8138
CA 34.2508 -1.57369 59.5401
CA 16.3476 31.7915 42.1596
CA 4.17224 17.5097 42.0419
CA -10.9423 3.47857 38.2218
CA 28.9026 -2.24305 62.1116
CA 20.8946 36.2333 37.4272
CA -11.1062 3.77914 47.3559
CA 5.99377 10.0528 46.0127
CA -12.709 10.6815 72.6535
CA -13.135 11.4721 48.4707
CA 17.3613 29.1835 35.6836
CA 13.256 6.57881 43.1084
CA -0.216439 22.5514 71.2959
CA 10.6934 14.5542 67.6316
CA 6.27291 29.9668 39.1552
CA 23.1935 16.121 55.369
CA 18.2236 25.742 39.6394
CA 30.2284 29.6107 71.0346
CA 9.23177 -8.09178 51.9512
CA 6.93391 14.5488 28.9059
CA 3.17609 17.9384 74.7315
CA -12.6658 16.4041 46.3955
CA -7.08802 27.8303 11.4948
CA -13.6848 -2.8106 27.6321
CA 3.42612 -13.9959 52.4245
CA 19.2296 5.50163 64.2242
CA 25.8806 14.4161 80.283
CA -4.29046 18.6459 80.7128
CA 0.707425 -2.17063 57.2145
CA 0.652832 32.0746 50.2499
CA 5.48934 -6.59778 58.5034
CA -4.43136 20.42 49.2908
CA -11.4235 4.59501 57.5362
CA -0.787056 29.3292 77.1049
CA 31.095 3.51284 65.6598
CA -9.1463 27.2723 13.1568
CA 12.9058 15.8725 66.6852
CA -15.8858 6.2542 57.0416
CA 27.6136 3.4211 68.657
CA 4.37257 27.6884 51.7984
CA 6.68481 26.3789 74.4913
CA 20.5425 27.7863 36.3128
CA 10.2184 29.4465 81.7005
CA 5.71402 18.031 37.5395
CA 23.0598 30.1846 83.447
CA -5.07635 32.2222 30.2677
CA -2.15456 16.0816 65.2099
CA -7.85711 24.4382 78.7502
CA 20.158 0.23762 67.792
CA 25.1844 1.26651 69.82
CA 25.2774 1.33878 61.5832
CA 0.271704 25.3195 75.1494
CA 0.575655 30.7869 78.3232
CA -3.41696 20.457 69.1826
CA 24.3454 7.05499 63.2662
CA -11.3192 25.8438 16.6673
CA 21.016 39.4575 40.522
CA 4.06442 31.7505 55.0164
CA -1.75909 -3.71827 49.0455
CA 5.46981 27.4373 40.0963
CA 3.12501 20.0382 68.9638
CA 6.52276 22.6007 54.5331
CA 4.22392 26.3131 53.4732
CA 21.237 -5.55297 77.4781
CA -18.529 18.4564 40.4139
CA -2.43298 28.3622 58.7163
CA 13.3917 32.3212 76.7088
CA 21.9637 0.501582 80.1122
CA 20.7684 30.8861 38.2429
CA -0.062563 17.6204 28.0833
CA 18.9074 17.8793 54.633
CA 24.2498 -2.47656 61.8552
CA 29.6639 26.1281 33.6981
CA 6.15538 11.5011 50.0912
CA -20.9687 0.400063 47.796
CA 0.667407 30.6622 80.1811
CA 2.78304 14.5571 74.4698
CA 19.4643 33.7978 68.9654
CA -1.14795 21.3983 17.1919
CA -5.75665 25.8239 44.7017
CA -0.0703953 20.7846 72.9913
CA 36.796 -0.177671 68.6021
CA 5.85585 15.2494 47.6657
CA -16.6016 19.3802 38.0394
CA -2.75033 32.3889 57.9877
CA 29.0628 -4.44835 71.7936
CA 6.79554 -13.6607 54.1728
CA 25.3194 -4.91733 63.5174
CA 5.14659 -11.0305 60.1769
CA 23.4837 15.2179 40.1987
CA 9.69429 24.8777 27.8082
CA 29.7261 5.29857 70.1405
CA 15.732 6.40495 38.2905
CA -4.37295 38.0393 54.2782
CA -6.39193 15.7221 41.9507
CA 9.58499 19.2559 31.1002
CA 0.389636 38.7368 81.1282
CA 6.59986 20.2286 53.1149
CA 12.0858 8.41122 41.6785
CA 21.0183 -4.50811 58.92
CA 5.43999 22.9482 64.7501
CA 1.36855 29.0403 74.8194
CA -16.2156 -2.0711 35.0368
CA 2.73517 0.892186 66.6573
CA 30.7691 8.40973 72.4914
CA 5.30768 24.0075 56.4671
CA 26.8619 6.26417 71.3858
CA -5.54192 9.21994 57.4358
CA -5.04605 24.8616 8.56617
CA 12.8968 20.0032 25.2895
CA 4.26158 13.4709 55.5621
CA 21.2083 -3.4045 60.5482
CA 0.247056 37.4615 19.0801
CA -16.9278 -0.98783 46.378
CA 4.80469 0.0837477 63.739
CA -5.03886 22.9586 37.5371
CA -0.605317 14.1579 41.7994
CA -13.6252 14.4591 17.9565
CA -3.02422 12.9357 65.5144
CA 26.4953 11.3629 69.3942
CA -1.61993 26.707 34.4213
CA 24.068 13.6034 63.4346
CA -0.507625 -16.195 48.884
CA -15.1489 14.1933 45.3422
CA 5.72781 25.511 38.9797
CA 21.5218 19.546 42.4937
CA 22.488 -1.67911 80.3822
CA 2.97153 22.2951 68.6113
CA -17.2051 0.193459 31.1041
CA 19.8997 -4.99268 60.2801
CA 31.0429 -1.58805 63.2959
CA 26.9962 0.414812 67.6412
CA 21.2867 30.4437 53.5166
CA 6.83346 24.9025 68.2795
CA 9.25917 24.0137 63.4166
CA -3.1692 26.0529 30.6367
CA -7.7359 24.3792 47.4503
CA 27.8166 -0.540784 70.7931
CA -1.31769 24.1988 67.9867
CA 3.77109 13.2534 52.7162
CA 23.1384 28.3697 74.307
CA -3.62478 33.3343 16.1633
CA -6.8501 21.4442 47.2543
CA 35.8826 2.66962 66.3589
CA -15.9716 11.4464 72.4358
CA -18.8361 2.95267 45.5425
CA 2.28173 29.8467 14.047
CA 38.3078 5.46298 69.3031
CA 24.5389 31.0516 80.7687
CA 9.19001 26.0292 79.6063
CA 21.269 5.55625 61.1232
CA -6.77839 28.7467 63.7462
CA 6.96804 7.08707 25.1369
CA 14.3325 23.8649 34.0025
CA 26.6272 -0.81888 64.8954
CA 0.973627 25.6916 56.4331
CA 7.94003 24.5154 69.9738
CA 22.0245 27.7207 63.5814
CA 23.1592 5.57179 62.5513
CA -12.5742 -1.53269 36.9195
CA 26.8903 8.0835 43.5276
CA 19.0396 5.63607 70.457
CA -18.3283 0.563798 44.4499
CA 2.38909 15.8256 60.6881
CA 23.3098 -5.66962 77.7439
CA 0.860814 30.466 76.0496
CA -12.7862 -3.64355 74.6299
CA 2.16546 14.7547 57.0342
CA 15.5809 35.3055 45.3861
CA 23.804 21.9435 74.4854
CA 3.10624 28.6573 52.9088
CA 34.2724 2.12539 62.6648
CA -4.22958 38.4814 58.4303
CA -6.1049 27.172 22.8827
CA 16.0971 36.2873 31.4706
CA -7.52783 22.8445 71.6589
CA 6.2837 5.26813 48.8624
CA 9.35267 31.6781 70.087
CA 1.9261 -3.83887 58.2264
CA 17.2303 35.3477 40.621
CA 22.8803 29.9181 72.923
CA 10.8333 31.8286 72.5155
CA 20.364 24.066 34.6136
CA 18.4781 24.1475 61.7628
CA 17.1275 15.486 57.5207
CA 13.9025 25.2672 30.2607
CA 19.5754 6.76757 41.0059
CA -18.6725 13.4829 68.069
CA 3.44357 22.2611 42.0652
CA 0.924417 19.6804 39.0922
CA 22.4545 -5.17546 58.0351
CA -12.8237 10.0748 45.3858
CA 21.0017 -2.86204 79.3297
CA 0.95267 18.4286 73.059
CA 19.8624 10.278 38.8896
CA 18.0713 33.9473 36.5374
CA -18.6967 0.838916 46.834
CA -1.73132 19.5802 71.7323
CA 19.493 17.2421 41.8382
CA 20.8697 17.1786 57.5887
CA 4.65516 5.61306 25.2409
CA -1.69326 16.9089 76.5133
CA 5.83234 21.145 69.0659
CA 1.8925 19.2924 70.6031
CA -9.42026 11.9979 72.4073
CA 7.89958 0.734982 65.1275
CA 2.63753 0.857112 64.1656
CA 15.3495 16.4302 27.2517
CA -0.335852 22.9624 81.2844
CA 7.86033 -7.96867 54.5128
CA -9.98485 32.4547 58.2559
