489

CA 16.8066 32.6265 37.8654
CA -14.2493 -1.26321 42.7289
CA -13.9819 -6.30933 41.8771
CA 5.60901 17.9582 39.6312
CA 23.2903 29.7885 58.646
CA -17.4469 13.3861 70.1037
CA -5.06519 24.7336 17.4817
CA 20.3916 32.467 65.2357
CA -4.12622 10.4641 65.8814
CA 26.6855 27.6547 40.893
CA 26.3816 30.0121 66.8962
CA 7.80961 -5.98868 55.3302
CA 1.77666 27.956 36.0618
CA 16.1752 28.9897 76.2062
CA -10.7742 22.8595 13.1209
CA 26.8672 3.96095 65.2737
CA 12.7088 15.4836 65.3251
CA 19.4023 5.33156 73.227
CA 26.1707 3.18973 63.0823
CA 22.8455 29.8358 63.2772
CA -2.69916 17.5087 82.4515
CA 31.1766 5.53663 67.9597
CA 8.45696 -12.6556 52.9543
CA -11.1046 -1.25384 42.602
CA -7.71616 33.3535 15.5997
CA -15.9128 0.397033 45.0443
CA -13.8141 18.5888 21.8821
CA -12.1496 32.9189 61.4213
CA 15.701 24.8493 63.2064
CA 5.29873 4.59081 62.7991
CA 11.1788 20.6356 29.3471
CA 22.5754 2.82753 29.511
CA 19.6092 26.8151 58.8006
CA 4.88427 24.8896 78.2821
CA -1.03647 27.3139 70.8078
CA -5.22894 30.6419 19.5142
CA -5.47241 30.2871 57.0283
CA 13.0462 34.0468 64.4677
CA -12.6198 15.7037 18.1707
CA 1.27282 17.2017 65.7474
CA 12.6988 4.32386 51.6165
CA 19.8225 2.64926 60.6051
CA 0.714914 25.9548 29.1355
CA 25.2049 30.6703 70.6387
CA 20.5167 36.5879 42.8656
CA -9.13078 21.2356 19.6843
CA 7.50488 20.936 65.2701
CA 7.17608 25.5006 80.4998
CA 0.723014 9.03613 53.1648
CA -9.92982 3.87145 75.4067
CA -9.17251 23.4039 14.3921
CA -16.7965 15.6381 43.0506
CA 2.18949 28.6838 48.7007
CA -6.05447 32.028 58.5645
CA 25.0463 1.59736 62.1682
CA 0.551836 29.3457 63.689
CA 19.3409 7.91236 71.6483
CA 19.5941 14.0432 56.4524
CA 5.73897 30.9791 81.2265
CA 19.698 35.9588 66.5506
CA -8.49348 3.14123 77.564
CA -14.2698 28.9676 18.0725
CA 25.7729 27.6278 78.498
CA 0.00794094 25.2636 52.3344
CA 5.80556 26.4416 77.752
CA 19.3349 25.2217 33.5465
CA 26.9566 -0.724327 63.0489
CA 16.8345 30.9035 60.1332
CA 20.0809 0.752081 63.3115
CA 4.40775 1.55021 61.3422
CA -2.41948 19.6819 39.2854
CA 17.4418 4.05249 49.6483
CA 6.55093 19.6661 47.2484
CA 3.14346 19.4673 40.2532
CA 0.8562 28.5455 57.7362
CA 4.28041 29.2048 60.8796
CA -1.96461 24.0889 75.2305
CA 14.6827 35.8091 43.5666
CA 1.83481 28.7627 38.1818
CA 12.717 13.5699 62.3193
CA 3.03922 5.79946 63.0872
CA 11.9019 28.9786 61.4587
CA 15.0071 14.0285 27.135
CA 18.2686 6.69635 73.9033
CA 15.9113 32.9397 55.3585
CA 1.94941 8.1009 63.581
CA -9.56332 28.9428 60.201
CA -6.28301 14.1273 62.9887
CA 16.6967 3.73761 47.0359
CA -16.0378 19.0708 23.0608
CA -15.2362 -4.71498 40.0062
CA 26.8793 1.35098 63.9074
CA -6.34768 8.96136 63.8891
CA -3.75274 29.9642 81.9553
CA 4.52552 7.45151 61.7095
CA 12.7356 23.1938 31.5943
CA 3.2647 -14.6796 47.5822
CA 1.79073 34.5121 78.6729
CA -3.56184 29.2083 52.8161
CA 5.57817 31.009 67.1307
CA -18.4797 27.6703 20.9946
CA 17.1424 21.0583 32.1365
CA 1.20306 12.1341 25.7326
CA 11.3586 23.0074 64.0621
CA 4.73692 9.1349 47.3751
CA 8.22631 16.876 71.1787
CA 15.1835 32.929 58.7364
CA 39.4666 10.8815 65.201
CA 6.36641 9.37789 48.8393
CA 8.6379 23.5632 67.1347
CA 7.12259 -10.5767 56.4239
CA 15.1398 31.5743 56.9884
CA 4.08828 -9.86359 62.3093
CA -15.8306 -3.95633 34.926
CA -12.7275 9.95333 52.131
CA -8.39509 30.8252 27.9527
CA -6.15175 4.4945 75.0876
CA -15.6697 12.57 49.2063
CA -20.1619 1.0268 46.7706
CA -13.2017 15.4295 44.1464
CA -2.10591 14.1018 64.2157
CA -9.74048 17.227 44.5778
CA -10.0234 30.983 16.0526
CA 2.04992 17.8787 43.3834
CA -5.03507 28.6811 73.941
CA 18.7528 10.7729 43.3521
CA -0.162173 18.8741 76.7834
CA 23.7305 32.5699 62.1319
CA 1.59155 18.5697 14.5107
CA 0.181812 26.0998 58.6408
CA -2.15602 10.9418 65.0149
CA 23.0733 28.8598 76.3331
CA -2.98929 -0.617184 65.2903
CA -5.09635 7.56016 56.9082
CA 15.4934 24.9771 36.7624
CA -2.50537 22.4692 68.7243
CA 30.7389 8.48885 80.9308
CA 1.49465 3.29462 64.4061
CA 1.72843 -13.4498 48.3401
CA -6.28746 29.4184 61.1882
CA 10.6755 11.8734 67.9904
CA 5.16047 30.0572 17.1814
CA -10.2956 35.0785 21.4699
CA -0.776475 37.3033 54.5222
CA 13.416 28.5133 55.2982
CA 23.1061 10.5271 78.5223
CA 20.8687 38.0088 67.6516
CA -15.6776 9.0877 41.6055
CA 12.4219 20.4633 33.8144
CA -8.85587 24.8828 9.1923
CA -11.4835 14.1192 47.476
CA 3.92111 18.9189 65.0996
CA 4.90054 34.1594 55.8734
CA 17.0631 19.8067 59.5431
CA 23.9079 27.1139 57.2129
CA 20.7608 14.9755 51.9839
CA 9.60111 22.725 36.3971
CA -9.49488 30.2741 23.1575
CA 4.38353 -8.14062 55.8201
CA 24.8962 -1.62685 76.5836
CA -15.085 14.2032 19.7922
CA 15.9049 24.6017 56.476
CA 16.3205 9.13319 42.4356
CA 20.8637 2.04835 66.6997
CA 2.09449 30.6402 62.7993
CA 3.63712 17.036 67.6781
CA -11.815 12.4181 64.5862
CA 30.7101 0.0596778 65.0197
CA 2.93671 20.69 78.9233
CA -0.0585967 34.1956 30.3176
CA 21.3391 -5.86591 63.6052
CA 17.6515 7.06373 71.7531
CA -12.0112 11.5489 52.8053
CA 24.7952 14.3613 37.6134
CA -3.77754 32.3238 78.7012
CA 26.9524 28.321 55.6947
CA 20.0813 -1.94679 81.6978
CA 0.289674 29.7609 50.1087
CA 3.10797 22.6845 77.1603
CA -16.4871 7.36747 46.0634
CA 22.2989 -1.00614 65.4345
CA 3.43436 -15.4771 50.7454
CA 14.8777 24.7561 76.7096
CA -0.474038 25.0731 61.2452
CA -5.88544 25.9089 29.9796
CA 19.6115 12.1057 62.4884
CA 17.0695 11.8629 55.1991
CA 20.0062 26.0656 35.3307
CA 11.3946 20.0891 63.9244
CA -1.1803 32.4752 17.2582
CA 19.2115 37.3871 70.7789
CA 27.2659 1.48182 73.7562
CA 1.40686 14.9129 63.695
CA -11.8551 37.102 16.701
CA -1.58589 28.1421 73.5472
CA 8.18641 12.7445 29.8604
CA -8.56863 22.248 8.44144
CA -10.9655 20.3332 20.6585
CA 6.63913 -1.0279 60.2465
CA 8.76655 37.5423 84.9395
CA 29.439 16.1468 41.0871
CA 6.51577 24.369 41.6777
CA -16.8062 -2.91613 44.3784
CA 16.6903 16.7729 54.4252
CA -1.23766 24.7982 65.0975
CA 8.97897 27.2638 39.9005
CA 13.9437 10.5211 62.4231
CA 0.278981 8.16879 65.4037
CA 24.3884 16.5117 41.895
CA -7.09673 28.9538 17.7618
CA 2.33988 21.5194 72.6612
CA 2.97721 26.8211 25.5647
CA -6.53084 19.206 51.2722
CA 4.77143 15.4103 66.519
CA 6.82648 13.2571 42.9449
CA 4.65841 -10.0967 58.201
CA 7.22158 24.8862 76.9883
CA -6.60588 25.1158 81.354
CA 26.946 8.78693 41.293
CA 15.9917 23.1419 62.6239
CA 4.94001 -12.8507 51.7922
CA 24.501 31.761 39.7913
CA 24.3445 26.9008 84.1478
CA 18.5239 35.3142 68.6188
CA -0.545049 18.3671 68.372
CA -6.2089 -0.362889 63.2699
CA 11.7653 14.7793 30.7406
CA 22.9878 29.8669 66.6832
CA 8.44744 16.502 67.1209
CA 11.5449 15.9937 27.2831
CA 1.809 24.779 25.8041
CA 16.5795 36.7292 33.686
CA 9.57304 25.3123 58.3192
CA 17.3791 14.2387 25.5789
CA -15.1894 11.2932 69.0532
CA -6.75542 28.0752 19.48
CA -11.3391 13.9298 68.4765
CA 5.0507 27.3118 67.6688
CA 3.34987 -13.437 49.9434
CA 8.98217 26.7302 76.8656
CA -4.78882 28.0498 27.5183
CA -1.26049 20.8798 59.5387
CA -7.01783 23.7963 15.1884
CA -16.4736 -2.18764 31.9065
CA 1.5818 14.1653 60.7142
CA -14.6306 -5.09155 45.6645
CA -0.0415404 21.2772 45.84
CA 6.9986 19.5672 44.9322
CA -3.60757 16.6401 42.5357
CA 15.081 38.039 70.924
CA 12.8575 10.3739 45.7547
CA 19.5496 38.2467 45.0245
CA 12.6242 4.62365 44.7454
CA 2.62678 34.6837 48.6873
CA -15.9172 25.5483 20.5588
CA 1.68597 24.4711 39.9414
CA 1.33265 27.1651 50.4508
CA -11.9924 18.2346 19.559
CA -4.20894 25.7906 72.4591
CA -8.33557 15.3791 44.1306
CA -12.8934 34.1535 15.6126
CA 2.50015 26.4871 33.5563
CA -7.73702 13.0236 35.2611
CA -5.2384 23.2374 27.7745
CA 16.7203 22.8 79.1322
CA -12.1446 11.8151 45.8058
CA -5.67446 26.952 71.5209
CA -0.0516787 34.349 54.444
CA 3.53624 16.0206 60.0395
CA -6.46153 32.4403 20.8577
CA 0.550519 21.017 78.1206
CA 33.328 11.6292 73.9881
CA 11.575 3.93048 39.0569
CA 2.78926 21.7519 68.7606
CA 21.7614 41.2508 42.157
CA 10.6618 23.5101 31.0561
CA 6.12459 12.1803 64.7177
CA 17.965 15.6123 26.9811
CA 17.3028 36.0815 66.965
CA 16.3476 31.7915 42.1596
CA 26.859 27.8905 81.0519
CA -2.48896 26.5838 73.167
CA 12.2762 33.8666 39.4463
CA -3.07931 9.99114 57.4683
CA 17.0966 8.30949 45.1944
CA 5.99377 10.0528 46.0127
CA -10.6128 30.6987 25.6093
CA -15.3988 16.9386 67.1266
CA -15.2915 -0.623011 48.6094
CA 13.256 6.57881 43.1084
CA -0.216439 22.5514 71.2959
CA -7.00552 28.5423 73.6919
CA 24.6965 16.758 67.0243
CA 23.1935 16.121 55.369
CA 6.00582 34.5621 65.8675
CA 30.3303 6.59184 76.8828
CA 9.23177 -8.09178 51.9512
CA 8.42737 27.0554 83.5375
CA 23.8258 8.55881 65.8063
CA -12.6658 16.4041 46.3955
CA -5.2935 18.0278 83.722
CA -13.6848 -2.8106 27.6321
CA -3.36218 4.32832 59.8526
CA 4.00541 34.7742 30.0597
CA 7.61733 2.16409 67.381
CA -4.29046 18.6459 80.7128
CA 9.32928 15.0073 65.1448
CA 0.652832 32.0746 50.2499
CA -0.619375 15.7505 46.6287
CA -4.43136 20.42 49.2908
CA 6.71137 13.617 28.9906
CA -0.787056 29.3292 77.1049
CA -13.282 38.6678 16.5966
CA 8.87543 18.6059 67.6115
CA 22.6534 9.66892 67.7856
CA -10.0821 32.2523 21.9136
CA -14.8649 -2.93518 37.1989
CA -0.26671 24.0058 32.4451
CA 0.0665604 33.8426 63.2354
CA 2.59237 17.0877 51.4043
CA 21.0369 3.80636 68.022
CA 5.71402 18.031 37.5395
CA 23.0598 30.1846 83.447
CA -5.07635 32.2222 30.2677
CA 15.8553 11.68 43.7647
CA -7.85711 24.4382 78.7502
CA 22.9805 12.3931 57.1552
CA -0.810158 -14.5006 49.9462
CA 27.7483 5.19457 67.6139
CA 5.05414 19.3066 69.7158
CA 28.2248 24.7293 37.8927
CA 18.3746 18.5671 41.0651
CA -10.8526 -0.946991 31.8837
CA -11.3192 25.8438 16.6673
CA 21.016 39.4575 40.522
CA 4.06442 31.7505 55.0164
CA -1.75909 -3.71827 49.0455
CA 3.05358 -11.225 48.9399
CA 0.0416285 1.50996 66.9677
CA 6.52276 22.6007 54.5331
CA 27.1241 14.2458 66.0985
CA 23.2102 36.2722 68.3983
CA -3.28092 14.1221 41.0479
CA 25.9285 27.3779 83.0423
CA 21.8539 5.06318 63.837
CA 4.78462 14.8466 62.9325
CA 20.7684 30.8861 38.2429
CA 14.3306 2.23544 46.4765
CA 18.9074 17.8793 54.633
CA 21.8978 38.1271 69.2285
CA 22.681 30.1205 87.3
CA 5.4736 11.5601 62.7442
CA -1.76922 4.74233 63.1235
CA 22.8925 26.2856 37.6497
CA 23.2131 25.1403 39.9182
CA 15.2236 19.2918 60.7518
CA -1.14795 21.3983 17.1919
CA -12.4744 14.6106 45.9153
CA -0.0703953 20.7846 72.9913
CA 36.796 -0.177671 68.6021
CA 5.85585 15.2494 47.6657
CA 5.72957 21.0815 66.3541
CA 28.4304 12.5541 42.4005
CA 7.22446 -1.29687 64.1336
CA 20.3734 -0.803363 61.6555
CA -6.7537 12.4978 66.464
CA 20.3301 32.2878 62.5179
CA 23.4837 15.2179 40.1987
CA -14.5991 -2.88049 41.9182
CA 29.7261 5.29857 70.1405
CA -2.24643 6.02645 65.6045
CA -4.37295 38.0393 54.2782
CA 14.6708 11.4237 47.2315
CA -1.62233 31.4495 76.3013
CA 0.389636 38.7368 81.1282
CA 14.886 3.83102 47.723
CA 20.4964 29.5612 78.3597
CA 16.464 16.3673 50.3532
CA -16.2422 18.1732 48.2318
CA -14.3581 17.2735 19.1218
CA -16.2156 -2.0711 35.0368
CA 23.9599 8.16214 38.6373
CA 30.7691 8.40973 72.4914
CA 5.30768 24.0075 56.4671
CA -5.00679 23.8449 72.6391
CA 6.79036 11.286 50.0349
CA 5.50231 15.9965 54.6238
CA 1.06092 36.9616 31.8672
CA 3.2187 20.6081 53.4279
CA 21.2083 -3.4045 60.5482
CA 0.247056 37.4615 19.0801
CA 23.2106 18.5729 42.8913
CA 4.80469 0.0837477 63.739
CA -12.2547 7.00677 75.2391
CA 26.3607 18.4813 75.0355
CA -1.53416 31.3388 71.7109
CA -3.02422 12.9357 65.5144
CA 26.4953 11.3629 69.3942
CA -0.266686 20.8976 61.9762
CA 24.068 13.6034 63.4346
CA -0.507625 -16.195 48.884
CA -15.1489 14.1933 45.3422
CA 6.86346 17.7421 63.5191
CA -11.6694 9.93277 72.6507
CA 18.4208 28.7135 74.7199
CA 3.87253 12.681 25.9045
CA -17.2051 0.193459 31.1041
CA 6.11795 9.16197 23.3107
CA 31.0429 -1.58805 63.2959
CA 22.6596 -1.73657 63.7269
CA 21.2867 30.4437 53.5166
CA 0.0214695 11.7292 23.6565
CA -2.34699 29.8828 74.3437
CA 10.5239 16.414 67.2046
CA -10.4613 12.4869 43.2996
CA 27.8166 -0.540784 70.7931
CA 20.798 23.2178 41.1048
CA 3.77109 13.2534 52.7162
CA 23.1384 28.3697 74.307
CA 15.8764 13.641 64.5566
CA -6.8501 21.4442 47.2543
CA 35.8826 2.66962 66.3589
CA 3.9108 13.2493 64.7472
CA -18.8361 2.95267 45.5425
CA 2.28173 29.8467 14.047
CA 2.27252 11.1268 57.0291
CA 2.21371 11.1337 51.728
CA 9.19001 26.0292 79.6063
CA 16.0527 37.0813 45.7405
CA 18.3198 40.5588 43.8926
CA 4.17501 20.3853 67.5162
CA -0.942431 20.1439 36.9584
CA 26.6272 -0.81888 64.8954
CA 0.973627 25.6916 56.4331
CA -0.584884 11.987 27.5246
CA 22.0245 27.7207 63.5814
CA 23.1592 5.57179 62.5513
CA -12.5742 -1.53269 36.9195
CA 26.8903 8.0835 43.5276
CA 19.0396 5.63607 70.457
CA -18.3283 0.563798 44.4499
CA 23.1557 28.1734 83.644
CA 15.7785 5.56131 46.6894
CA 2.70233 30.5432 48.7665
CA 4.45109 -5.69489 58.2694
CA 2.16546 14.7547 57.0342
CA 15.5809 35.3055 45.3861
CA 23.804 21.9435 74.4854
CA 33.8328 2.61871 70.6307
CA -2.66996 19.8362 60.8459
CA -16.3568 1.57447 48.2163
CA 19.9097 14.7689 65.9078
CA 14.8435 4.66914 43.891
CA 2.20537 -0.337082 59.3019
CA 5.13328 12.7496 28.8392
CA 0.108269 6.33649 65.9735
CA -11.6843 7.63847 45.1988
CA 17.2303 35.3477 40.621
CA 22.8803 29.9181 72.923
CA 16.2508 30.5698 62.4076
CA 8.97249 12.5088 53.3784
CA -4.34351 16.0421 77.647
CA -0.997451 1.20318 65.4072
CA -3.95104 21.2478 69.5345
CA -2.13986 30.396 30.5022
CA 17.633 7.56704 40.4318
CA -14.735 18.8428 18.1529
CA -1.69213 15.6766 41.3565
CA 22.4545 -5.17546 58.0351
CA -12.8237 10.0748 45.3858
CA 21.0017 -2.86204 79.3297
CA 24.1535 27.8769 66.3257
CA 19.8624 10.278 38.8896
CA 18.0713 33.9473 36.5374
CA 1.7416 21.4422 64.6765
CA 25.3806 19.2788 42.5029
CA 19.493 17.2421 41.8382
CA -0.24146 -0.602173 65.4758
CA 25.5561 13.6063 56.6637
CA 28.4927 25.8712 41.9672
CA -16.3395 20.3538 17.65
CA -17.0722 11.5693 46.7187
CA -9.42026 11.9979 72.4073
CA 7.89958 0.734982 65.1275
CA 2.63753 0.857112 64.1656
CA 15.3495 16.4302 27.2517
CA 3.78327 7.7603 67.1548
CA 27.0638 16.8043 72.2249
CA 1.65051 19.2731 53.6929
