489

CA -9.13051 24.798 44.7989
CA -8.7837 9.57858 77.2517
CA 6.76903 -3.71258 56.3155
CA 10.7072 13.249 50.9159
CA 21.3121 3.46446 48.3122
CA 27.2365 8.28764 70.9561
CA -2.27536 32.377 43.4348
CA 24.9225 32.087 80.0156
CA 9.06316 22.4169 66.6649
CA 3.45574 24.8427 66.2379
CA 2.44689 33.1794 39.9602
CA 16.7787 -1.67779 56.6561
CA 1.39001 15.7309 60.823
CA 11.078 31.233 81.0058
CA 10.4494 8.08813 41.6533
CA 25.0778 23.0128 66.5246
CA -3.47967 5.86308 53.7023
CA 10.2514 33.1408 61.2466
CA -9.14666 20.0848 17.449
CA -2.1128 16.8576 64.6063
CA 22.1169 -2.94744 45.7761
CA -6.67903 20.703 13.685
CA 13.7553 28.6876 59.5422
CA 19.9516 23.2145 63.8517
CA 16.5309 11.5946 43.5714
CA 7.9375 15.3161 50.6006
CA 15.899 5.60837 35.3674
CA 16.7518 30.7359 63.8836
CA 18.3319 -4.33768 56.808
CA -10.5681 20.1864 45.8089
CA 17.8135 25.4201 59.4152
CA 12.3092 -2.99684 63.5048
CA 16.6215 29.8988 68.1517
CA -4.63644 -15.8174 49.2242
CA 3.21808 25.2497 68.0787
CA -19.0568 -1.40264 48.1998
CA -15.8613 11.3684 68.8609
CA -16.6331 28.8413 14.9348
CA -2.98711 31.5202 55.7192
CA 4.31649 27.0477 63.7185
CA 25.4924 9.14409 40.971
CA 11.225 27.9894 69.318
CA 0.79842 36.5453 56.655
CA 8.55552 23.351 59.7446
CA -2.30585 -16.3635 54.3602
CA 22.0784 22.3683 68.5771
CA 8.98079 34.0338 74.9701
CA -9.14316 27.2701 14.0037
CA 22.0388 28.1239 46.1372
CA 4.75852 20.6969 69.525
CA 15.0713 17.2025 47.1128
CA 5.66058 29.8422 82.3496
CA 7.78949 28.6946 39.2811
CA 30.7157 1.02834 46.2834
CA 9.82548 23.258 81.5196
CA 13.6683 -10.0616 60.4152
CA -2.39477 -0.96092 66.8076
CA 35.368 7.93993 66.1337
CA 20.6412 24.8858 78.2178
CA -3.50947 33.3942 41.1146
CA 32.8841 31.8688 78.1933
CA 18.5063 30.2947 77.1541
CA -4.84449 33.7215 80.7967
CA -12.8201 28.9892 14.1209
CA 5.26083 3.7316 64.8907
CA 26.0569 7.46884 73.4724
CA 31.8433 3.89343 71.3288
CA -19.9188 11.4556 47.9028
CA 20.8167 14.5419 65.8192
CA 2.18522 10.7341 62.8842
CA -16.3557 10.6191 51.5832
CA -6.02692 28.7108 54.0106
CA 24.3269 36.3767 77.9872
CA 10.1421 13.488 52.6204
CA 2.38854 20.5038 66.7644
CA 0.625541 34.9742 39.9981
CA 1.03057 26.1375 53.1939
CA -5.09391 19.682 66.4448
CA -14.1119 20.7449 67.6719
CA 37.1436 5.95113 68.1532
CA -8.74288 22.4983 32.2935
CA 4.28843 30.8936 68.5125
CA 24.4944 12.6224 43.4993
CA 34.2702 24.3484 46.0431
CA 4.56058 39.3617 74.1022
CA 32.3833 9.71419 69.7965
CA -4.77269 33.4595 63.6374
CA 16.5335 -5.67315 63.5219
CA 6.45131 26.8934 82.1259
CA 18.0203 16.9595 49.4536
CA -11.4278 -6.02028 42.0137
CA -24.2531 33.3501 19.1083
CA 4.44974 31.5051 61.4336
CA 26.9907 19.6287 42.4747
CA 1.96648 24.1967 67.2653
CA 3.42234 24.7746 85.8373
CA 3.44542 26.21 32.7329
CA -14.6947 16.5453 73.775
CA 22.1735 5.0921 60.1223
CA 30.2065 19.2272 41.6406
CA -2.39876 -5.18367 68.7494
CA -1.80584 31.7961 64.4294
CA -4.17396 30.5135 56.9408
CA 20.6941 15.8097 67.7118
CA 3.14416 32.254 70.974
CA 11.27 26.5138 34.3096
CA -0.0410145 23.6296 55.322
CA -2.38823 8.8188 81.3186
CA 5.97914 23.2251 64.8111
CA 19.8494 27.3651 46.5398
CA -2.87702 39.6187 84.4589
CA 23.2462 3.65567 58.7298
CA -2.30383 17.0013 67.4992
CA -12.7437 31.9875 15.909
CA 24.2475 12.0403 40.1644
CA 21.206 16.4178 52.5632
CA 11.0267 36.2058 79.5597
CA 16.8151 29.5216 37.3639
CA -5.52934 34.332 38.9957
CA 0.956688 8.40342 50.5918
CA -1.67367 20.0197 68.8517
CA 34.5077 21.6037 43.9733
CA 27.1167 7.85417 37.8119
CA 17.2115 26.4761 57.79
CA 14.3531 16.9959 52.9305
CA 7.84257 36.1793 70.2364
CA 5.25191 25.5317 47.5935
CA 15.9929 32.2746 79.3791
CA 30.4381 28.7927 78.1403
CA 16.898 20.2632 56.2639
CA 6.53394 33.4194 70.6521
CA 14.8257 3.65665 42.301
CA 13.0722 32.1109 57.1393
CA 29.4606 4.71646 67.1019
CA 21.6634 32.472 43.7136
CA -14.7463 24.973 29.3828
CA -5.7069 30.857 66.3912
CA -21.3875 32.0129 15.278
CA -4.4038 -19.4105 45.8408
CA 8.01812 26.0219 66.8559
CA -7.32012 9.34598 68.0759
CA 3.48723 19.2436 57.1796
CA 5.06558 29.2081 62.8498
CA -4.36933 31.6426 41.7799
CA 0.527369 18.8437 35.6817
CA 1.52648 8.49567 53.8681
CA 19.8135 9.1026 46.7977
CA -14.0265 20.5043 16.7294
CA 18.5156 0.013101 57.6942
CA 21.3857 -5.67961 51.8189
CA 4.51725 35.0218 75.8807
CA 2.2769 26.0704 46.2573
CA -5.85323 15.5893 46.6423
CA 31.5772 22.9998 55.5991
CA -10.0187 22.7485 26.2936
CA 28.3253 18.1585 43.8245
CA 20.116 32.4878 61.156
CA 23.0081 -0.374881 57.807
CA 10.0226 -9.23293 53.7554
CA -15.2188 30.6259 17.4469
CA -17.984 0.178333 48.3735
CA -0.948196 34.4344 78.0353
CA 13.1343 16.3452 56.9736
CA 12.705 24.0303 39.0165
CA -10.3252 27.6524 18.2893
CA 23.7794 32.011 76.7249
CA 11.8733 28.552 40.8996
CA -17.9245 33.915 16.1273
CA 0.621002 18.7768 65.2085
CA -9.37863 12.0579 49.673
CA 20.9513 -2.45755 51.0747
CA -6.28371 21.5589 30.1963
CA 19.2632 34.6926 59.311
CA 14.5447 27.5292 75.0731
CA -2.92205 4.89662 56.3177
CA 19.4365 23.5777 74.0283
CA -18.7756 37.0391 17.8457
CA 14.6451 24.0727 63.8983
CA 12.1496 17.8239 27.6084
CA -16.4871 7.36747 46.0634
CA 14.8268 33.3465 53.0856
CA 28.9398 6.50529 65.994
CA 16.3644 34.2077 62.7457
CA 4.83477 9.62232 67.0693
CA 9.55759 34.1364 67.923
CA -3.30068 32.5128 61.9282
CA 0.0306566 21.8833 37.0785
CA 25.1302 3.14151 42.4878
CA 1.36594 35.8071 72.3611
CA 6.73421 21.0183 35.5945
CA 0.896231 25.0871 36.1828
CA 34.663 23.1158 51.9361
CA 4.66055 8.03352 29.7464
CA -16.1875 13.7256 49.8727
CA -3.55118 32.3663 82.023
CA 16.2025 -3.91525 50.0912
CA 13.4004 27.7655 65.7243
CA 4.02936 13.6213 52.4138
CA 22.2102 -0.737495 67.7843
CA 2.04733 39.2026 76.3939
CA -8.03625 26.1499 11.3859
CA -21.0242 -4.36177 45.226
CA -0.600768 -1.30591 67.0284
CA 19.8345 24.6274 72.3208
CA 1.29318 12.7283 61.4661
CA 8.14999 25.9664 69.1526
CA 26.0191 29.8429 38.984
CA 36.4023 1.42057 37.1878
CA 11.7236 24.994 49.2207
CA -20.3819 34.5087 18.0421
CA 8.84208 18.7031 62.7824
CA 23.8598 26.4378 70.8491
CA -3.87484 26.614 53.0381
CA -2.68686 8.63263 76.3071
CA 21.6374 31.0061 77.7207
CA -13.58 17.4409 71.2925
CA 24.8691 7.39394 60.2908
CA 18.7991 29.9927 39.003
CA -1.38273 29.3439 17.5192
CA 24.7809 28.6943 68.8088
CA -17.4491 -2.53578 46.5879
CA -1.29854 37.3398 73.5305
CA 17.2967 26.9055 71.2044
CA -2.0766 18.1371 65.9041
CA -8.03663 19.5823 35.8176
CA -2.4594 20.7122 66.7228
CA 13.0533 20.1434 31.4312
CA 34.2524 3.98907 40.7209
CA 15.9995 12.3266 59.856
CA -3.79778 19.0214 15.0072
CA 33.3506 6.30544 40.2125
CA 28.9595 22.7506 54.8919
CA 36.2821 26.5861 45.6003
CA -2.31262 28.752 15.4345
CA -6.44912 -13.9424 43.3192
CA 25.8262 11.5664 39.0393
CA 11.5672 -9.97041 64.621
CA 21.5095 -0.25799 49.2919
CA 26.4428 11.3748 65.53
CA 10.4065 -8.25624 61.5317
CA 13.8361 24.2141 35.3734
CA 3.45299 29.4614 57.5697
CA 31.6562 9.234 30.8516
CA 19.0218 5.86345 57.2924
CA -9.51136 30.242 19.8696
CA 30.8011 4.05148 68.1552
CA -5.40093 35.3019 76.3716
CA 26.7393 40.3653 41.4793
CA 19.9094 34.3853 76.3511
CA 17.5868 23.7042 71.1707
CA 20.1381 26.7073 71.3584
CA -9.85152 24.3007 46.4034
CA -0.210987 37.9575 76.7926
CA -10.8242 7.61787 66.8047
CA 24.9123 40.572 42.2018
CA 28.7892 5.12575 38.9963
CA 6.43304 20.101 56.7433
CA 24.3734 10.0112 44.4293
CA 1.57704 22.3587 13.0324
CA -1.39299 23.1592 36.1425
CA 6.42269 10.7718 30.8244
CA 8.35051 21.0784 28.6006
CA 21.2897 25.2142 73.5155
CA 33.7649 9.85271 37.3287
CA 16.8938 23.0479 39.5886
CA 24.0186 36.1112 80.1875
CA -20.2925 28.5617 16.5451
CA -1.84175 14.5122 66.0805
CA 7.20255 -8.7999 52.0893
CA 11.1871 32.8186 79.9957
CA -18.1202 27.5713 15.2025
CA -1.2824 -0.734225 63.5306
CA -5.56406 38.4578 78.9559
CA 8.52717 18.6423 51.4704
CA 21.4551 16.6185 64.7244
CA 20.0471 32.5738 73.2862
CA -16.3189 -5.00155 42.7734
CA 5.15269 22.7147 68.9385
CA 17.7496 25.896 66.7547
CA 22.2007 22.2868 66.6856
CA 17.1065 23.7343 66.6507
CA -11.4761 9.71979 65.9918
CA -3.23993 32.7921 19.1298
CA 14.3158 5.3849 43.3498
CA -2.50594 18.6415 18.0461
CA 5.99573 22.3086 62.1969
CA 9.11385 -0.343775 60.9527
CA 3.98292 -10.9308 55.7019
CA 0.28307 4.28559 70.2032
CA 4.00362 23.5676 16.7402
CA -4.181 29.586 44.8171
CA 2.24003 -4.11446 61.5974
CA 7.20031 13.8587 54.0366
CA -10.7427 12.922 66.4801
CA 5.41082 2.41668 66.6685
CA 28.1196 6.59607 68.9219
CA 9.71366 -6.21857 58.2863
CA 19.473 12.7671 65.2867
CA 21.1915 29.12 69.2791
CA 6.33114 34.4928 74.2296
CA 6.23234 29.9171 72.0771
CA 8.03518 26.7882 80.6128
CA 28.2918 5.92421 60.0111
CA 18.7102 24.7729 47.9945
CA -15.0619 31.5626 15.8067
CA 11.6423 35.24 55.6517
CA 3.84511 28.5257 44.8778
CA 18.9477 -4.31438 58.6906
CA -12.1139 30.3688 25.6094
CA 29.1894 29.5114 79.4788
CA -4.30198 21.5081 39.3074
CA 18.7083 33.1079 55.5518
CA 30.0362 9.26784 34.4495
CA -6.46337 25.3324 41.4713
CA -24.3656 32.4992 15.8385
CA 6.14248 25.1528 66.9329
CA -4.1363 29.8601 58.9558
CA 8.02669 9.00108 27.0937
CA -5.73108 -18.2333 44.8693
CA 1.89176 26.5414 82.6785
CA 22.6581 5.58052 47.5203
CA -1.07317 17.3932 35.5864
CA 34.3365 6.49958 69.9656
CA -2.69545 20.3054 58.8577
CA 19.8596 14.3938 72.9258
CA -9.58834 25.4801 22.18
CA -21.1669 34.3755 14.8779
CA -2.13741 15.3134 34.0415
CA 20.2807 1.03889 51.1078
CA 28.2399 19.1201 38.6879
CA 22.3675 37.6902 75.799
CA -0.43594 42.2393 72.1989
CA 14.0477 28.3859 78.4005
CA 7.03019 24.69 58.4012
CA -9.25224 15.7517 46.0424
CA 20.616 21.6793 76.9718
CA 1.02041 0.200806 69.4648
CA 21.0969 19.7526 56.0377
CA 1.63998 12.2303 69.0314
CA -2.08836 26.8404 73.5061
CA -18.3403 33.6964 20.0114
CA 17.885 22.6126 60.5745
CA 23.0416 1.43284 59.1984
CA -14.6232 13.9308 51.3946
CA 27.7479 20.6883 40.2049
CA -2.09017 20.2289 13.3979
CA -5.24652 28.4524 8.57916
CA 21.5604 12.4499 67.105
CA 11.6196 27.1676 64.354
CA -9.77154 28.8563 16.3438
CA 5.31952 22.4768 56.1468
CA -11.4152 -1.87639 44.2517
CA 33.9612 13.3943 66.6564
CA 22.5456 25.6927 68.9374
CA 9.05225 14.3421 44.8964
CA 29.1363 9.11961 70.307
CA 17.4278 10.9116 34.2593
CA 13.717 5.21562 39.7269
CA 3.8841 12.6425 55.5267
CA -0.685302 4.30277 72.6388
CA 0.565645 2.81973 61.5049
CA 28.7213 2.6826 60.6103
CA -11.2016 6.18198 67.9128
CA 27.7264 6.1433 40.2324
CA 17.7155 16.3779 60.0185
CA -10.2811 27.6308 44.7387
CA 31.0559 17.8574 44.5886
CA -7.11579 7.31137 77.5626
CA -1.94624 40.7977 14.8397
CA 0.0899829 14.1031 34.3598
CA -7.71277 39.9033 79.2921
CA -3.41836 25.4342 68.6741
CA 12.9927 24.774 66.0081
CA 11.1602 26.5886 66.5183
CA 1.71544 4.08096 60.2278
CA 0.617731 35.8864 74.2137
CA 7.55396 15.9501 54.2183
CA -2.02335 23.6778 34.1339
CA 20.7285 -6.99007 60.2486
CA 28.9091 9.38619 38.1497
CA -4.37795 28.0561 56.6228
CA -2.83536 26.3451 7.55813
CA 1.37938 21.9223 16.3451
CA 36.0604 22.8417 47.2837
CA 19.1034 28.787 54.4542
CA -4.27132 29.6382 54.9302
CA 3.36027 32.3325 42.0853
CA 0.146761 10.1229 77.625
CA 16.1716 28.0725 58.9199
CA -0.684558 -15.218 51.82
CA 22.6578 36.4988 81.9502
CA 0.465207 45.8569 71.1372
CA -3.25932 6.91233 72.2716
CA 2.957 3.82009 63.7422
CA -7.64887 21.8806 35.7428
CA 4.57489 11.5901 67.2786
CA 2.18373 21.4642 56.3763
CA 22.7918 28.8406 80.923
CA -4.88723 36.7533 85.1233
CA 14.6979 34.8241 61.1496
CA 15.2816 -9.31559 54.7462
CA -19.1965 8.09897 48.441
CA 2.34086 11.8345 26.4077
CA 36.5599 26.9322 50.928
CA 31.856 24.8871 51.1152
CA -5.27496 38.2031 77.0328
CA 15.2907 29.9648 41.3391
CA 17.9531 18.7281 69.756
CA 6.1257 25.3699 44.3875
CA 17.6622 8.57419 43.5974
CA 3.64443 2.9831 67.9588
CA -4.51863 25.3554 16.6656
CA 23.1934 12.9933 61.5817
CA 37.4381 9.899 69.3472
CA 34.4263 17.2363 46.9815
CA 13.2337 -8.17935 62.7491
CA 4.53836 11.5291 33.3077
CA -3.35084 36.0191 15.6436
CA -9.01746 22.3349 66.5442
CA -13.4559 28.6663 17.8375
CA 19.0312 30.2849 65.2127
CA 0.12404 -2.98114 68.683
CA 0.320279 11.684 35.5849
CA -18.8361 2.95267 45.5425
CA 16.2232 17.352 68.3024
CA 7.86488 12.5342 52.7769
CA 25.058 32.3417 39.3446
CA 21.1761 26.7158 44.2246
CA 8.14269 -1.34795 64.6068
CA 4.24396 36.193 45.2843
CA -8.44921 26.2972 50.5433
CA -10.8209 26.1672 27.4233
CA -10.5115 8.25345 72.6938
CA 23.4788 23.5661 70.6616
CA -1.7905 -9.30376 53.0237
CA -3.997 33.7048 43.8339
CA -2.33663 20.632 56.3142
CA 18.5765 28.9937 41.1895
CA 30.3066 26.0703 48.4021
CA 8.60094 26.4611 45.6232
CA 13.5332 14.1258 56.6396
CA 8.07839 23.0255 57.3185
CA 29.0491 27.7688 76.7353
CA -17.3631 11.6939 65.2324
CA 9.79959 15.3491 55.7837
CA 8.91548 -0.767313 67.7084
CA 19.4236 18.4596 73.7624
CA 16.1751 1.69327 60.2109
CA 0.310076 43.3439 76.2085
CA -0.456282 -13.4379 53.4042
CA -5.49456 28.003 42.8472
CA 24.6311 35.5267 44.2302
CA 2.09104 6.19597 52.7382
CA 28.1529 16.7825 40.2297
CA 21.7201 -7.83271 62.1163
CA 12.8572 34.0691 68.3756
CA 25.5293 14.3922 36.0018
CA 0.809529 16.3819 34.905
CA 7.64266 -12.6126 55.3326
CA 21.7042 -4.44399 59.1865
CA -4.5309 -3.78811 68.4356
CA 28.4098 10.6734 68.898
CA 12.8443 26.7653 67.4338
CA -11.1933 5.91474 47.9384
CA -12.2157 8.95556 49.747
CA 35.4582 26.0365 49.173
CA -9.2044 23.264 12.7477
CA -5.13177 31.8483 44.2083
CA 23.6481 6.53147 50.5151
CA 30.7251 3.69119 42.2726
CA -1.52719 34.3421 54.2062
CA -3.28536 35.1971 19.3611
CA 15.5335 26.5919 55.7416
CA 0.563289 0.448452 67.3899
CA 23.9135 3.76859 70.6092
CA 23.8788 3.35833 45.4376
CA -6.0767 16.3972 65.4713
CA 14.3044 15.8918 43.5146
CA 5.18371 23.2216 31.783
CA 30.6864 30.8698 79.2442
CA 14.0396 19.0158 70.1866
CA 17.7969 5.17613 42.5161
CA -3.22864 6.94744 61.2476
CA -1.25677 21.8898 13.8173
CA 17.6387 3.99519 51.9327
CA 15.5319 21.6253 38.3464
CA 24.4802 28.6746 78.0235
CA -17.9353 31.8106 16.3578
CA 14.9008 32.2746 56.8773
