489

CA 13.7483 39.5392 56.5392
CA 16.1563 18.4936 56.4859
CA 6.76903 -3.71258 56.3155
CA 3.413 2.29628 69.5735
CA 21.3121 3.46446 48.3122
CA 27.2365 8.28764 70.9561
CA 22.3269 -8.24066 60.5716
CA 10.1578 27.6094 64.3224
CA 9.06316 22.4169 66.6649
CA 13.9172 -14.119 58.3402
CA 15.9469 -5.65506 58.9746
CA -12.3246 12.677 62.4808
CA 27.3591 31.2135 66.1336
CA 19.3324 22.5247 45.0992
CA 10.4494 8.08813 41.6533
CA 14.2665 21.805 73.541
CA 22.1628 25.0751 40.6534
CA 10.2514 33.1408 61.2466
CA 20.9334 28.4811 81.6699
CA -17.1826 30.618 18.4352
CA 5.32286 25.7199 28.2912
CA -6.67903 20.703 13.685
CA 13.7553 28.6876 59.5422
CA 19.9516 23.2145 63.8517
CA 16.5309 11.5946 43.5714
CA 7.9375 15.3161 50.6006
CA 7.54649 21.4601 47.706
CA 16.7518 30.7359 63.8836
CA 6.4202 25.1317 64.9981
CA 14.4311 27.0131 74.8069
CA 10.571 26.3108 61.5736
CA -0.352816 7.76494 53.4185
CA 23.876 22.5872 69.6842
CA -4.63644 -15.8174 49.2242
CA -6.85461 23.313 38.949
CA -19.0568 -1.40264 48.1998
CA 4.6862 19.1344 32.8462
CA 12.2308 30.6974 80.0588
CA 15.0409 28.5478 36.7798
CA 20.4046 33.5388 81.32
CA 25.4924 9.14409 40.971
CA -3.25602 42.5468 74.4598
CA 0.79842 36.5453 56.655
CA 16.701 36.9872 56.4137
CA -2.30585 -16.3635 54.3602
CA 8.84081 37.2886 55.3518
CA 29.5605 7.31449 63.8354
CA -11.8043 14.4563 69.1945
CA 22.0388 28.1239 46.1372
CA 4.75852 20.6969 69.525
CA 15.0713 17.2025 47.1128
CA 1.59812 5.83497 28.4714
CA 26.6928 22.4587 47.0089
CA 30.7157 1.02834 46.2834
CA -12.8325 8.46612 68.554
CA 13.6683 -10.0616 60.4152
CA -2.39477 -0.96092 66.8076
CA 35.368 7.93993 66.1337
CA 16.9169 22.6968 40.5218
CA -3.50947 33.3942 41.1146
CA 22.3079 23.5963 66.5797
CA -6.94253 29.6513 53.0954
CA 22.8179 12.9279 56.8668
CA 4.35844 23.8194 48.0448
CA 19.5466 24.4725 66.4456
CA 18.3183 2.88267 45.9321
CA 33.9908 27.8497 79.0272
CA -12.2909 15.789 50.3105
CA 20.8167 14.5419 65.8192
CA 18.5561 29.8056 67.092
CA -16.3557 10.6191 51.5832
CA -4.13865 9.60895 69.2699
CA 3.76778 31.0764 50.3845
CA 0.410836 16.5667 68.9683
CA 25.6927 3.61155 45.9256
CA 0.625541 34.9742 39.9981
CA 1.03057 26.1375 53.1939
CA -12.6831 8.95757 70.773
CA 34.2679 28.9282 81.5814
CA 12.8451 26.3706 50.2868
CA 4.85899 28.7579 76.173
CA 18.3347 33.5433 53.0135
CA 24.4944 12.6224 43.4993
CA 34.2702 24.3484 46.0431
CA 32.8101 7.70183 38.9632
CA 20.1957 6.05029 48.0045
CA -4.77269 33.4595 63.6374
CA 0.761065 41.2065 78.8315
CA 6.45131 26.8934 82.1259
CA 10.5223 25.1341 71.3361
CA 1.74009 25.9921 37.589
CA -7.53376 27.4908 40.2012
CA 4.44974 31.5051 61.4336
CA -3.68173 2.32349 72.328
CA 1.96648 24.1967 67.2653
CA 21.9243 10.7112 62.3711
CA 3.44542 26.21 32.7329
CA -14.6947 16.5453 73.775
CA 22.1735 5.0921 60.1223
CA 16.8657 21.2222 51.2527
CA -2.39876 -5.18367 68.7494
CA 14.1271 28.1132 61.3591
CA 34.3696 8.8405 71.0228
CA 20.6941 15.8097 67.7118
CA 34.3658 30.8261 83.3886
CA -5.39884 29.4763 17.508
CA 3.30797 23.3458 83.3945
CA 23.6879 -6.49345 58.3311
CA -18.5501 2.58188 50.4624
CA 19.8494 27.3651 46.5398
CA 22.6853 24.4583 80.3161
CA -9.69143 24.8765 29.9263
CA 3.45019 8.04667 54.3417
CA 3.15481 24.8034 50.5657
CA 2.26101 5.18898 71.1245
CA 2.45757 25.8147 55.5284
CA 11.0267 36.2058 79.5597
CA -2.96349 -17.4476 46.941
CA -5.52934 34.332 38.9957
CA -13.8864 10.0301 50.0907
CA 22.9422 11.8017 58.3852
CA 19.2846 32.3765 77.8605
CA 19.4371 29.4865 81.8492
CA 17.2115 26.4761 57.79
CA 6.92911 26.8784 64.6617
CA 1.0245 37.2244 14.341
CA 7.07981 -0.67173 67.8167
CA 15.9929 32.2746 79.3791
CA 2.32325 8.16135 71.728
CA 16.898 20.2632 56.2639
CA 16.3886 20.3311 39.8617
CA 14.8257 3.65665 42.301
CA 13.6751 37.1732 60.2524
CA -3.77029 27.0289 9.06913
CA 21.6634 32.472 43.7136
CA -1.83431 14.839 32.5558
CA 0.558435 7.11552 51.1011
CA 16.1481 18.7052 50.0916
CA -4.4038 -19.4105 45.8408
CA 8.01812 26.0219 66.8559
CA -7.32012 9.34598 68.0759
CA -20.1613 1.27089 45.8194
CA 16.9389 30.6179 40.8031
CA 31.076 15.7797 39.6391
CA 0.527369 18.8437 35.6817
CA -9.53529 28.2451 13.1395
CA 19.8135 9.1026 46.7977
CA -14.0265 20.5043 16.7294
CA 18.5156 0.013101 57.6942
CA 21.3857 -5.67961 51.8189
CA 4.51725 35.0218 75.8807
CA -1.40812 27.4794 40.7932
CA 3.92172 37.6198 56.2986
CA -6.95835 33.4594 40.4219
CA 34.123 19.6846 41.0728
CA 20.6194 4.64972 42.7367
CA 20.116 32.4878 61.156
CA 9.77884 22.5421 47.5435
CA 32.0278 9.2671 28.3099
CA -5.86314 41.0356 15.7668
CA 12.6711 37.7086 63.8306
CA -0.948196 34.4344 78.0353
CA -15.438 11.6886 55.4813
CA -10.0459 8.82938 78.3905
CA -10.3252 27.6524 18.2893
CA 0.98334 41.2559 76.7867
CA 11.8733 28.552 40.8996
CA -17.9245 33.915 16.1273
CA 33.2399 9.88288 68.3711
CA -9.37863 12.0579 49.673
CA 5.41682 33.7041 82.0708
CA -6.28371 21.5589 30.1963
CA 9.83728 22.5162 68.9219
CA 26.3162 3.12616 69.1814
CA -2.92205 4.89662 56.3177
CA 19.4365 23.5777 74.0283
CA -18.7756 37.0391 17.8457
CA 20.7029 28.0376 72.714
CA 12.1496 17.8239 27.6084
CA -16.4871 7.36747 46.0634
CA 17.4477 -1.28152 56.9074
CA 12.1757 24.683 73.8359
CA -13.4365 11.7362 56.6466
CA 23.8647 36.2065 80.3037
CA 9.55759 34.1364 67.923
CA -3.30068 32.5128 61.9282
CA 0.0306566 21.8833 37.0785
CA 7.937 22.3503 63.0082
CA -12.4089 13.8791 45.6503
CA 1.59028 30.3368 59.128
CA 4.07922 5.42431 69.7093
CA 34.663 23.1158 51.9361
CA 4.66055 8.03352 29.7464
CA 9.07246 27.7475 58.4744
CA -3.55118 32.3663 82.023
CA -2.699 -15.5896 45.6667
CA 13.4004 27.7655 65.7243
CA 4.02936 13.6213 52.4138
CA 22.2102 -0.737495 67.7843
CA 2.04733 39.2026 76.3939
CA -8.03625 26.1499 11.3859
CA 16.9763 31.7877 76.5456
CA -2.58835 26.5656 35.9778
CA 19.8345 24.6274 72.3208
CA 1.29318 12.7283 61.4661
CA -3.33319 17.5794 63.7054
CA -1.3036 2.43127 72.6178
CA 3.87099 27.9756 69.9041
CA 11.7236 24.994 49.2207
CA 14.0499 23.7509 73.9072
CA 8.84208 18.7031 62.7824
CA 9.8707 29.8068 83.2644
CA -3.87484 26.614 53.0381
CA 16.0552 39.3699 56.6528
CA 21.6374 31.0061 77.7207
CA -13.58 17.4409 71.2925
CA 4.72635 31.3414 63.3001
CA 24.9836 31.7832 68.0628
CA 15.535 9.07912 47.025
CA 24.7809 28.6943 68.8088
CA -17.4491 -2.53578 46.5879
CA 17.3149 -3.68237 60.2071
CA 17.2967 26.9055 71.2044
CA -2.0766 18.1371 65.9041
CA -8.03663 19.5823 35.8176
CA -2.4594 20.7122 66.7228
CA -0.757885 24.2298 34.6523
CA 30.6127 27.0517 75.6827
CA 0.923239 31.9172 40.4123
CA -3.79778 19.0214 15.0072
CA 2.7735 31.5346 58.4126
CA 18.9003 3.8833 59.8634
CA 1.1571 33.0399 56.6235
CA 14.7766 33.7216 58.2679
CA -6.44912 -13.9424 43.3192
CA 25.8262 11.5664 39.0393
CA -4.43554 -18.9261 43.6914
CA 22.5715 -9.2438 50.1236
CA 15.9017 17.4328 39.0666
CA 10.4065 -8.25624 61.5317
CA 13.8361 24.2141 35.3734
CA -6.6969 0.931663 74.4213
CA -14.4749 8.72175 52.7234
CA 19.0218 5.86345 57.2924
CA -9.51136 30.242 19.8696
CA 30.8011 4.05148 68.1552
CA 3.28269 22.7359 81.0053
CA 1.04968 27.3047 50.7028
CA 19.9094 34.3853 76.3511
CA -3.55587 21.0058 16.3172
CA 9.47228 17.6722 29.8246
CA -10.4062 13.3319 61.1974
CA -0.210987 37.9575 76.7926
CA -10.8242 7.61787 66.8047
CA 22.5658 17.017 65.9586
CA -1.05059 12.5158 50.1536
CA -5.34638 30.299 42.7664
CA 24.3734 10.0112 44.4293
CA 1.57704 22.3587 13.0324
CA 22.4837 31.7282 38.2095
CA -4.44028 7.25422 52.3515
CA -3.28995 21.2193 36.7098
CA 5.19976 29.4581 45.7442
CA 17.7598 30.1132 71.6645
CA 1.21731 38.5677 78.3473
CA -1.85231 43.4795 76.8065
CA -20.2925 28.5617 16.5451
CA 8.56046 -3.98699 65.9298
CA 12.9885 14.1694 49.063
CA 11.1871 32.8186 79.9957
CA -18.1202 27.5713 15.2025
CA -4.55642 35.2067 17.9538
CA 9.24168 -9.59167 59.0799
CA 13.0872 27.7195 39.7336
CA 15.2185 26.2142 64.5311
CA 6.5287 41.2488 70.4696
CA 20.4551 4.72902 51.4483
CA 22.3179 29.8146 53.0455
CA 27.6182 14.012 65.6474
CA 23.1842 30.1097 45.4422
CA 17.1065 23.7343 66.6507
CA 8.32615 -2.17071 62.5299
CA 8.36792 24.2733 70.6928
CA 14.3158 5.3849 43.3498
CA -2.50594 18.6415 18.0461
CA 30.8238 21.8485 78.5689
CA -10.3821 28.3082 24.4725
CA 3.98292 -10.9308 55.7019
CA 0.28307 4.28559 70.2032
CA 4.00362 23.5676 16.7402
CA 17.546 25.673 64.1355
CA 29.596 9.34092 30.3359
CA 7.20031 13.8587 54.0366
CA -10.7427 12.922 66.4801
CA 5.41082 2.41668 66.6685
CA 0.778181 31.9968 64.7532
CA 30.4811 9.7613 62.9725
CA 19.473 12.7671 65.2867
CA 21.1915 29.12 69.2791
CA 28.5334 8.95283 72.7568
CA 6.23234 29.9171 72.0771
CA 10.6408 13.0438 46.4757
CA 28.2918 5.92421 60.0111
CA 0.365123 28.3574 70.1864
CA -1.27517 41.6714 17.6921
CA 11.6423 35.24 55.6517
CA 17.2912 28.2413 66.7658
CA -5.58404 27.9221 14.8075
CA -12.1139 30.3688 25.6094
CA 23.6225 8.06635 58.2681
CA 2.35801 13.9038 54.4935
CA 18.7083 33.1079 55.5518
CA 30.0362 9.26784 34.4495
CA -6.46337 25.3324 41.4713
CA -1.51478 43.0348 74.8981
CA 6.14248 25.1528 66.9329
CA -4.1363 29.8601 58.9558
CA 20.6951 -5.11771 57.2114
CA 24.2057 4.60989 55.9428
CA 1.89176 26.5414 82.6785
CA 22.6581 5.58052 47.5203
CA -1.07317 17.3932 35.5864
CA 2.44011 30.644 69.7956
CA 3.53481 24.3078 62.654
CA -5.18333 20.2811 69.5673
CA -9.58834 25.4801 22.18
CA 8.69906 29.2883 68.796
CA 7.15904 0.425149 69.3245
CA 26.35 9.89523 61.364
CA 29.3599 27.2392 78.6674
CA -7.44119 26.7727 45.4732
CA 16.1593 25.1454 33.8192
CA 16.1598 18.6128 47.9924
CA -10.8512 4.95626 63.8254
CA 13.3225 35.2633 64.863
CA 20.616 21.6793 76.9718
CA 40.294 10.0018 67.7151
CA -20.1793 38.4432 19.7586
CA 0.667047 7.77375 67.3505
CA -2.08836 26.8404 73.5061
CA 9.7196 28.0654 62.3545
CA 29.893 22.0627 75.3563
CA -0.510877 39.16 73.6356
CA -0.977591 16.6251 63.1626
CA 27.7479 20.6883 40.2049
CA 1.84679 31.9347 73.8082
CA -5.24652 28.4524 8.57916
CA 32.7126 3.72836 38.8939
CA 3.34949 22.878 55.3071
CA -9.77154 28.8563 16.3438
CA 3.48023 38.563 37.8239
CA 18.1251 31.0792 42.1102
CA 30.0439 29.9824 76.4907
CA 1.8801 22.0619 38.2655
CA 16.9267 37.3395 65.6323
CA -2.45975 19.2316 30.2194
CA 11.3252 24.4992 69.5092
CA -5.86148 11.0634 79.7549
CA 5.84604 32.6174 78.8637
CA 16.0833 18.088 70.1837
CA -5.43338 24.6741 14.2672
CA -1.64324 21.2065 13.5158
CA 5.89479 24.1769 20.7911
CA 27.7264 6.1433 40.2324
CA 14.7139 35.0207 56.1715
CA 22.1656 26.6729 83.6789
CA 31.0559 17.8574 44.5886
CA -7.11579 7.31137 77.5626
CA -1.94624 40.7977 14.8397
CA -6.3816 17.1502 19.5369
CA 10.14 22.3801 30.3149
CA -3.41836 25.4342 68.6741
CA 12.9927 24.774 66.0081
CA -4.63981 10.2161 76.4234
CA 14.8404 23.9131 48.8912
CA 0.617731 35.8864 74.2137
CA 8.86895 25.934 64.3065
CA 29.774 22.5392 50.7397
CA 20.7285 -6.99007 60.2486
CA 25.4737 1.92981 44.4382
CA 11.8069 24.5061 52.2448
CA -2.83536 26.3451 7.55813
CA -10.4715 23.7914 14.2723
CA 36.0604 22.8417 47.2837
CA 19.1034 28.787 54.4542
CA 8.61679 29.2396 66.3853
CA 3.36027 32.3325 42.0853
CA 2.25858 33.9305 73.7774
CA 27.1886 25.2311 78.0424
CA 6.11403 27.1894 74.4796
CA 6.00324 19.5887 54.6494
CA 0.465207 45.8569 71.1372
CA -3.25932 6.91233 72.2716
CA 2.957 3.82009 63.7422
CA -7.64887 21.8806 35.7428
CA 4.57489 11.5901 67.2786
CA 2.18373 21.4642 56.3763
CA 22.7918 28.8406 80.923
CA -4.06747 22.1648 12.9429
CA 14.6979 34.8241 61.1496
CA 5.92376 27.8324 44.1646
CA 12.4283 25.7315 62.7348
CA -1.56862 20.2016 69.4206
CA -1.18316 10.0804 52.7705
CA 6.28677 17.5944 53.0999
CA -5.27496 38.2031 77.0328
CA 20.4952 31.2434 64.6109
CA 17.9531 18.7281 69.756
CA 23.8267 5.09923 50.659
CA 17.6622 8.57419 43.5974
CA 6.73613 -7.76054 58.8713
CA -10.2487 15.5693 51.3387
CA 23.1934 12.9933 61.5817
CA 37.4381 9.899 69.3472
CA 3.00998 5.2965 55.9875
CA 6.55509 25.8264 58.1907
CA 4.53836 11.5291 33.3077
CA -3.35084 36.0191 15.6436
CA 27.6237 8.74875 67.2026
CA 4.59128 22.9782 61.1012
CA 15.968 17.0486 58.9664
CA 31.1906 18.0455 39.6551
CA 0.320279 11.684 35.5849
CA -18.8361 2.95267 45.5425
CA 16.2232 17.352 68.3024
CA 7.86488 12.5342 52.7769
CA -0.783593 26.1157 42.6953
CA 21.1761 26.7158 44.2246
CA 8.14269 -1.34795 64.6068
CA 4.24396 36.193 45.2843
CA 3.78063 41.1463 38.8242
CA -5.75973 29.1395 58.5572
CA 33.4133 22.0911 56.2976
CA -13.7514 24.1132 14.882
CA -10.8054 24.7845 26.2686
CA -15.0221 31.8643 24.0681
CA 0.0423375 2.51103 70.5073
CA 31.5367 21.6368 59.7881
CA -1.27446 24.4336 41.178
CA 8.60094 26.4611 45.6232
CA -8.55044 29.4973 42.8151
CA -5.37389 31.1486 78.4769
CA 12.2683 13.5108 52.5546
CA 25.5389 6.94821 69.1695
CA 6.81068 27.9351 58.8127
CA 32.0898 9.79701 32.1388
CA -2.37292 26.037 41.6542
CA 4.01406 39.9856 71.5967
CA 25.6367 2.37721 48.6231
CA -0.456282 -13.4379 53.4042
CA -5.49456 28.003 42.8472
CA 5.68365 25.211 47.6387
CA 2.09104 6.19597 52.7382
CA 6.76192 33.737 86.5085
CA -11.2053 28.15 20.0998
CA -2.94747 30.9414 19.4773
CA 25.5293 14.3922 36.0018
CA 12.4477 27.1267 75.4534
CA 7.64266 -12.6126 55.3326
CA 24.4557 33.8961 40.2917
CA 5.66188 18.9457 31.31
CA 28.4098 10.6734 68.898
CA 12.8443 26.7653 67.4338
CA -11.1933 5.91474 47.9384
CA -7.77622 41.7133 16.7588
CA 29.3122 15.7291 38.9537
CA 11.6699 -4.00399 61.8962
CA 5.92581 28.8428 60.6055
CA 1.69532 28.7258 75.0546
CA 25.2379 18.9799 45.1291
CA 0.833933 22.2089 70.2366
CA -3.28536 35.1971 19.3611
CA 2.91524 10.1157 53.9773
CA -7.34156 35.7808 39.6157
CA 23.9135 3.76859 70.6092
CA 38.2467 27.5009 79.5877
CA -6.0767 16.3972 65.4713
CA 14.3044 15.8918 43.5146
CA -20.0718 31.4888 20.0008
CA -14.5186 34.2564 18.2297
CA 14.0396 19.0158 70.1866
CA 17.7969 5.17613 42.5161
CA 19.3853 -2.55558 59.1003
CA -0.675091 21.8809 10.7947
CA 17.6387 3.99519 51.9327
CA 15.5319 21.6253 38.3464
CA 24.4802 28.6746 78.0235
CA 13.4412 22.1131 39.1608
CA 14.9008 32.2746 56.8773
