489

CA 29.0727 18.8179 40.1125
CA 16.1563 18.4936 56.4859
CA -14.0296 34.4729 16.2477
CA 3.413 2.29628 69.5735
CA 21.3121 3.46446 48.3122
CA -1.57012 40.2901 76.6219
CA 27.0795 28.043 84.4869
CA 10.1578 27.6094 64.3224
CA 9.06316 22.4169 66.6649
CA 13.9172 -14.119 58.3402
CA 9.40486 25.9445 44.9784
CA -1.7354 25.702 81.1085
CA 10.5425 25.7266 75.0158
CA 19.3324 22.5247 45.0992
CA 26.8993 29.442 66.1792
CA 10.2688 12.4728 52.5078
CA 9.64415 36.2328 76.9819
CA 10.2514 33.1408 61.2466
CA 20.9334 28.4811 81.6699
CA 6.32155 0.6915 66.3249
CA 5.32286 25.7199 28.2912
CA 6.91717 38.0142 58.2971
CA 4.91677 9.75815 57.1992
CA 19.9516 23.2145 63.8517
CA 4.15143 35.9064 40.0764
CA 17.8659 23.3594 35.9362
CA 7.54649 21.4601 47.706
CA -12.1194 5.75603 54.1078
CA 25.7577 24.2403 81.7624
CA 14.4311 27.0131 74.8069
CA 9.87662 26.1027 42.1405
CA -0.352816 7.76494 53.4185
CA 21.2994 32.0315 58.5742
CA -4.63644 -15.8174 49.2242
CA -6.85461 23.313 38.949
CA 8.23763 3.88085 66.4268
CA 29.5117 4.70179 46.1524
CA 12.2308 30.6974 80.0588
CA 28.5552 22.8991 48.3594
CA 28.5785 -11.3492 47.2006
CA -4.31216 12.4676 79.3142
CA 26.1342 19.3398 62.2998
CA 21.665 7.96604 56.3993
CA 31.2659 17.6926 37.7871
CA -2.30585 -16.3635 54.3602
CA 8.84081 37.2886 55.3518
CA 29.5605 7.31449 63.8354
CA -11.8043 14.4563 69.1945
CA 2.87957 35.4247 53.3259
CA 10.7303 -11.2871 64.3266
CA 2.25285 31.7117 44.0387
CA 1.59812 5.83497 28.4714
CA 26.6928 22.4587 47.0089
CA 11.8807 -11.395 56.1448
CA 17.035 10.4865 51.3997
CA 26.8145 23.8236 80.3515
CA -2.39477 -0.96092 66.8076
CA 7.26414 27.0399 76.7024
CA 4.15679 9.13604 50.4405
CA 27.3209 8.423 41.1656
CA 22.3079 23.5963 66.5797
CA 2.89451 27.3061 68.9867
CA 20.2335 10.9796 63.5132
CA 14.9979 8.45573 41.7132
CA -1.60273 15.3735 64.7563
CA 21.2144 33.8979 63.0219
CA 33.9908 27.8497 79.0272
CA 22.722 12.0485 65.7793
CA 17.6861 33.0328 61.6361
CA 11.1462 16.6264 73.1621
CA -16.3557 10.6191 51.5832
CA -15.8072 36.2036 14.4448
CA -12.3784 8.27754 58.3721
CA 0.410836 16.5667 68.9683
CA 25.6927 3.61155 45.9256
CA 13.3058 28.027 43.0852
CA 8.15422 25.5915 35.4098
CA -12.6831 8.95757 70.773
CA 34.2679 28.9282 81.5814
CA 12.8451 26.3706 50.2868
CA 6.53267 19.6134 66.6541
CA 1.73933 37.5182 19.2473
CA -13.4883 6.12567 66.39
CA 17.1956 21.1642 48.6063
CA 32.8101 7.70183 38.9632
CA 20.7067 -9.33354 45.8724
CA 2.88135 23.2333 25.667
CA 0.36551 11.1766 52.5026
CA 6.45131 26.8934 82.1259
CA 24.4545 3.76437 47.2372
CA 1.74009 25.9921 37.589
CA -7.76451 30.0883 17.6045
CA -12.4218 35.5028 18.7598
CA -3.68173 2.32349 72.328
CA -3.05925 21.3129 15.4937
CA 21.9243 10.7112 62.3711
CA 3.44542 26.21 32.7329
CA -14.6947 16.5453 73.775
CA 1.56008 5.8671 26.4594
CA 16.8657 21.2222 51.2527
CA -2.39876 -5.18367 68.7494
CA -17.8717 26.5202 19.0837
CA 34.3696 8.8405 71.0228
CA 14.4463 27.8012 80.4815
CA -0.764824 26.2127 45.0948
CA 15.424 22.5242 39.9025
CA 28.1367 10.3709 63.7224
CA 23.6879 -6.49345 58.3311
CA 12.3135 24.5341 34.1553
CA 19.8494 27.3651 46.5398
CA 0.432599 43.4346 73.615
CA -9.69143 24.8765 29.9263
CA -8.25076 25.6579 44.5816
CA 19.1598 25.018 65.4231
CA 5.42686 20.783 47.9483
CA 2.45757 25.8147 55.5284
CA -0.543832 15.1691 54.3687
CA 13.9397 19.8438 53.5003
CA 29.5219 5.39182 44.4342
CA 28.3882 6.18769 49.4625
CA 19.0933 7.33537 61.5775
CA -23.1511 37.1259 18.3483
CA 19.4371 29.4865 81.8492
CA 10.7821 14.9204 60.4563
CA 6.92911 26.8784 64.6617
CA 8.64037 13.0701 34.5628
CA 24.2613 19.082 70.5642
CA 9.2681 17.5031 61.3457
CA -22.8197 33.6691 21.5528
CA 16.898 20.2632 56.2639
CA 20.6797 15.8631 72.2337
CA 13.8849 16.5992 40.7787
CA 13.6751 37.1732 60.2524
CA 16.2542 17.0357 45.7275
CA 5.23767 35.7964 54.5312
CA -1.83431 14.839 32.5558
CA 14.3359 17.1439 69.7036
CA 38.4733 24.7904 51.0989
CA -4.4038 -19.4105 45.8408
CA 8.01812 26.0219 66.8559
CA 27.472 4.57192 63.2164
CA -20.1613 1.27089 45.8194
CA 16.9389 30.6179 40.8031
CA 9.75507 3.93059 64.6715
CA 0.527369 18.8437 35.6817
CA 5.76521 14.4914 33.1962
CA 19.8135 9.1026 46.7977
CA -14.0265 20.5043 16.7294
CA 18.5156 0.013101 57.6942
CA 21.3857 -5.67961 51.8189
CA -18.9462 35.5842 19.0704
CA -12.1733 18.327 17.139
CA 3.92172 37.6198 56.2986
CA -6.95835 33.4594 40.4219
CA 34.123 19.6846 41.0728
CA 15.4689 25.4199 47.5295
CA 20.116 32.4878 61.156
CA 9.77884 22.5421 47.5435
CA 32.0278 9.2671 28.3099
CA -5.86314 41.0356 15.7668
CA 6.2919 22.1585 20.5703
CA -0.948196 34.4344 78.0353
CA 31.423 18.4727 35.7719
CA 8.54856 -5.81141 65.3385
CA 12.9973 32.1959 73.9291
CA -3.09439 31.9361 59.4421
CA 11.8733 28.552 40.8996
CA -17.9245 33.915 16.1273
CA 19.8621 36.063 55.3629
CA -1.72941 34.0991 54.0991
CA 5.41682 33.7041 82.0708
CA -6.28371 21.5589 30.1963
CA 9.83728 22.5162 68.9219
CA 27.4523 20.907 49.9974
CA -2.92205 4.89662 56.3177
CA 3.33955 36.0293 37.4975
CA 1.43437 22.2401 71.335
CA 28.3699 10.6756 65.7851
CA 4.58542 15.2244 62.6664
CA -16.4871 7.36747 46.0634
CA 2.08335 33.663 47.7254
CA 12.1757 24.683 73.8359
CA -13.4365 11.7362 56.6466
CA 23.8647 36.2065 80.3037
CA 9.55759 34.1364 67.923
CA -3.30068 32.5128 61.9282
CA 15.0306 15.6156 48.3012
CA 7.937 22.3503 63.0082
CA 22.9141 14.0246 44.0873
CA -10.6818 6.24156 52.561
CA 5.91148 28.6687 61.7382
CA 34.663 23.1158 51.9361
CA 4.66055 8.03352 29.7464
CA 35.8048 19.6493 48.7379
CA -3.55118 32.3663 82.023
CA 0.41541 25.0903 70.3731
CA 8.09634 35.0482 38.8032
CA 2.46306 23.8241 29.6821
CA -2.74729 30.3645 83.2687
CA -5.96174 9.05496 64.8492
CA -8.03625 26.1499 11.3859
CA 4.71077 0.697425 51.6316
CA 13.031 26.8168 35.9292
CA 2.1502 18.2396 80.3185
CA 1.29318 12.7283 61.4661
CA -13.1617 13.8626 76.2014
CA 19.9795 1.83404 48.1441
CA 3.06868 4.31601 53.3182
CA 4.38709 33.2336 51.4196
CA -8.81145 33.0261 36.2719
CA 8.84208 18.7031 62.7824
CA 3.79047 0.279016 68.899
CA -12.5201 24.5619 23.7511
CA 17.4235 19.8537 54.572
CA 12.405 22.2571 69.3527
CA -13.58 17.4409 71.2925
CA 4.72635 31.3414 63.3001
CA 6.96971 28.5306 80.2207
CA 8.26116 25.1771 22.182
CA -1.20206 40.9497 19.537
CA 1.96706 7.88844 54.5049
CA 27.2454 21.1921 77.9183
CA 14.7021 25.7968 40.0037
CA 21.9452 10.4144 65.7056
CA -10.2991 24.782 17.0525
CA -2.4594 20.7122 66.7228
CA 2.79556 26.9282 50.9506
CA 30.6127 27.0517 75.6827
CA 1.25221 34.0927 53.8987
CA -3.79778 19.0214 15.0072
CA 2.7735 31.5346 58.4126
CA 18.9003 3.8833 59.8634
CA 8.25548 10.355 35.3798
CA 5.54334 10.1204 68.5822
CA -7.15231 -14.1602 50.4104
CA 25.8262 11.5664 39.0393
CA -4.43554 -18.9261 43.6914
CA 22.5715 -9.2438 50.1236
CA 15.9017 17.4328 39.0666
CA 10.4065 -8.25624 61.5317
CA 13.8361 24.2141 35.3734
CA -6.6969 0.931663 74.4213
CA -6.45456 12.3196 62.0142
CA 10.057 19.6089 40.838
CA -9.51136 30.242 19.8696
CA 30.8011 4.05148 68.1552
CA 3.28269 22.7359 81.0053
CA 18.7583 22.1892 51.2743
CA 19.9094 34.3853 76.3511
CA 30.5732 1.74354 43.8343
CA 9.47228 17.6722 29.8246
CA -10.4062 13.3319 61.1974
CA -0.735049 25.043 14.1748
CA -10.8242 7.61787 66.8047
CA 13.7997 -0.101227 60.3418
CA 12.1417 23.257 62.4215
CA 15.1093 -1.76414 59.6959
CA 13.8525 23.1895 65.5872
CA 1.57704 22.3587 13.0324
CA 22.4837 31.7282 38.2095
CA 12.3647 22.4827 33.4027
CA 21.4836 18.1318 47.5085
CA 28.2338 28.7089 75.595
CA 17.7598 30.1132 71.6645
CA 18.1175 17.8773 43.0133
CA -1.85231 43.4795 76.8065
CA -20.2925 28.5617 16.5451
CA 24.4586 8.82564 46.6395
CA 12.9885 14.1694 49.063
CA 12.411 8.58726 48.8136
CA 19.5523 28.2165 43.2201
CA 4.74323 10.418 65.7448
CA 38.5612 28.2819 50.4637
CA 3.02857 8.52829 28.3311
CA -8.1204 9.66987 61.3863
CA 1.02736 45.4168 77.1929
CA -2.33154 38.3707 74.8894
CA 22.3179 29.8146 53.0455
CA 27.6182 14.012 65.6474
CA 25.6021 1.84092 49.2024
CA 34.4778 5.67005 69.9788
CA 17.7611 26.5475 38.3877
CA 8.36792 24.2733 70.6928
CA 21.6214 2.95493 53.1671
CA -2.50594 18.6415 18.0461
CA 5.81561 2.25498 71.3706
CA -10.3821 28.3082 24.4725
CA 3.98292 -10.9308 55.7019
CA 17.3915 14.9482 63.963
CA -10.6095 20.4788 18.1032
CA 17.1017 21.6697 39.8073
CA 29.596 9.34092 30.3359
CA 14.6935 18.0329 67.7614
CA 12.2801 25.3509 40.0529
CA 5.41082 2.41668 66.6685
CA 23.8186 6.54725 49.3526
CA 5.70371 35.7914 39.0747
CA 19.473 12.7671 65.2867
CA 0.288995 31.7791 21.9036
CA 14.9622 12.4701 46.5655
CA 14.407 15.7677 44.3161
CA -0.646061 6.79372 64.2002
CA 1.02727 10.1771 64.8986
CA 0.365123 28.3574 70.1864
CA -1.27517 41.6714 17.6921
CA 11.6423 35.24 55.6517
CA -2.69874 29.26 54.2767
CA -5.58404 27.9221 14.8075
CA -11.8548 26.7612 27.6718
CA 23.6225 8.06635 58.2681
CA 13.0321 17.6162 57.836
CA 18.7083 33.1079 55.5518
CA 30.0362 9.26784 34.4495
CA 24.853 -0.165589 46.3161
CA -1.51478 43.0348 74.8981
CA 6.14248 25.1528 66.9329
CA -1.67458 -18.5692 54.0071
CA 20.6951 -5.11771 57.2114
CA 14.3463 34.1684 68.99
CA 1.89176 26.5414 82.6785
CA 18.8237 38.1611 70.3825
CA -3.59524 27.6589 51.9848
CA 2.44011 30.644 69.7956
CA 11.9333 -15.2244 62.3216
CA -7.16074 14.6846 13.1957
CA -9.58834 25.4801 22.18
CA 17.9315 4.4705 47.737
CA 6.26675 31.2576 59.865
CA 10.3368 25.4765 36.9025
CA 24.9399 14.7491 72.4782
CA 22.4943 5.31928 50.7799
CA 2.50004 34.4565 17.9124
CA 16.1598 18.6128 47.9924
CA -2.7828 29.3783 49.1034
CA -2.25381 12.3224 62.1572
CA 19.9414 19.1255 48.529
CA 21.1686 28.1585 41.5259
CA 1.86274 33.8198 42.4117
CA 21.029 14.0118 69.6226
CA 8.53128 27.3643 40.3181
CA 4.30972 11.7964 64.5708
CA 29.893 22.0627 75.3563
CA -0.510877 39.16 73.6356
CA 18.8572 28.9061 60.7279
CA 13.4432 27.131 39.9058
CA 18.8079 -12.5364 49.1687
CA -5.24652 28.4524 8.57916
CA 22.6189 15.7904 71.1634
CA 15.6121 -8.77765 64.807
CA -3.39594 24.3898 83.8572
CA 3.48023 38.563 37.8239
CA -11.0272 30.8284 33.3265
CA 6.472 23.1898 46.552
CA 1.8801 22.0619 38.2655
CA -1.51972 27.4667 17.5801
CA -2.45975 19.2316 30.2194
CA 18.4831 34.9289 72.0411
CA -5.86148 11.0634 79.7549
CA 5.84604 32.6174 78.8637
CA 16.0833 18.088 70.1837
CA 18.9806 7.33072 49.1925
CA -1.64324 21.2065 13.5158
CA 33.6591 11.9594 28.3599
CA 27.7264 6.1433 40.2324
CA 14.7139 35.0207 56.1715
CA 22.1656 26.6729 83.6789
CA -12.2138 11.651 58.5017
CA -7.11579 7.31137 77.5626
CA 13.5648 -8.69653 56.7013
CA 24.963 16.7485 45.0729
CA 10.14 22.3801 30.3149
CA -20 27.7759 14.8305
CA 4.74253 28.2893 70.0282
CA -8.11382 26.7709 16.1533
CA 14.8404 23.9131 48.8912
CA 4.04473 30.32 48.3822
CA 2.89843 34.0657 56.1321
CA 29.774 22.5392 50.7397
CA 12.0834 35.556 58.6834
CA 25.4737 1.92981 44.4382
CA 24.1712 23.0877 82.2574
CA 21.4343 30.0039 61.9058
CA 22.7964 28.75 51.4795
CA 36.0604 22.8417 47.2837
CA 19.1034 28.787 54.4542
CA 8.61679 29.2396 66.3853
CA 3.36027 32.3325 42.0853
CA 2.25858 33.9305 73.7774
CA 27.1886 25.2311 78.0424
CA 2.62853 20.5055 19.9984
CA 25.8298 29.5294 53.2427
CA -5.53445 15.9876 14.1512
CA -3.25932 6.91233 72.2716
CA 2.957 3.82009 63.7422
CA -3.25031 37.031 66.6099
CA 31.4597 10.9928 28.5971
CA 24.8588 26.9399 51.1783
CA -12.1934 7.0379 55.558
CA 25.9093 31.1856 78.4597
CA -15.8942 10.4189 49.2323
CA 21.1144 27.3468 68.1117
CA 12.4283 25.7315 62.7348
CA -1.56862 20.2016 69.4206
CA 19.003 8.8995 60.1022
CA -18.9393 16.2534 72.5486
CA -5.27496 38.2031 77.0328
CA 20.5258 35.2332 83.0428
CA 10.3038 29.7772 52.7591
CA -3.80156 28.3558 6.29828
CA 17.6622 8.57419 43.5974
CA 6.73613 -7.76054 58.8713
CA 24.1286 33.5594 63.6298
CA -6.09276 6.55993 63.777
CA 37.4381 9.899 69.3472
CA 3.00998 5.2965 55.9875
CA 28.4518 29.4825 82.1847
CA 4.53836 11.5291 33.3077
CA 7.92184 12.1099 50.8906
CA 17.5383 16.0534 35.0026
CA 4.59128 22.9782 61.1012
CA 15.968 17.0486 58.9664
CA -10.1129 17.2073 13.9389
CA -1.53388 10.8163 65.413
CA -15.7293 4.9573 49.6758
CA 17.5337 32.8535 71.7904
CA 7.86488 12.5342 52.7769
CA 1.72817 22.7118 18.7098
CA 21.1761 26.7158 44.2246
CA -2.97124 30.5533 56.4723
CA 4.24396 36.193 45.2843
CA 19.3483 29.1343 56.238
CA 8.66617 -4.30622 57.2007
CA 19.4152 5.85602 52.6777
CA 13.7407 28.8772 75.6742
CA 5.74528 26.0497 75.6948
CA -10.6181 18.4485 18.7411
CA 0.0423375 2.51103 70.5073
CA 9.02228 23.935 63.0531
CA -15.0079 28.8977 21.8511
CA -6.20553 25.5177 43.0117
CA -8.55044 29.4973 42.8151
CA 17.5959 28.233 44.2476
CA 16.0987 1.50041 60.213
CA 25.5389 6.94821 69.1695
CA 6.81068 27.9351 58.8127
CA 4.74646 11.6635 51.2729
CA -2.37292 26.037 41.6542
CA -22.6008 30.1147 16.4635
CA -13.3641 13.9128 51.0141
CA -0.456282 -13.4379 53.4042
CA -11.037 33.9952 18.7415
CA 5.68365 25.211 47.6387
CA -2.86896 7.51007 75.6534
CA 6.76192 33.737 86.5085
CA 0.833663 6.48286 56.6127
CA -2.94747 30.9414 19.4773
CA 34.335 9.96338 28.9694
CA 12.4477 27.1267 75.4534
CA 22.5422 21.5381 69.2815
CA 22.4737 34.0488 85.8549
CA 5.66188 18.9457 31.31
CA 28.4098 10.6734 68.898
CA 2.87471 21.1178 11.6803
CA -14.3987 14.6207 48.9284
CA 6.42834 30.1501 50.9771
CA 29.3122 15.7291 38.9537
CA 11.6699 -4.00399 61.8962
CA 18.418 31.1874 59.1389
CA 29.274 9.21815 45.8893
CA 25.2379 18.9799 45.1291
CA -2.89417 11.9567 81.5527
CA -5.38998 18.5562 65.0221
CA 3.07485 20.6482 68.6739
CA 14.4777 32.0447 71.0797
CA 23.9135 3.76859 70.6092
CA 4.00612 20.3497 64.9913
CA -6.0767 16.3972 65.4713
CA 6.24801 6.15803 69.2969
CA -20.0718 31.4888 20.0008
CA 7.28887 1.94762 67.8733
CA -9.80696 22.58 35.8078
CA 20.6068 15.2684 55.7067
CA 8.14146 31.1684 87.2074
CA 3.26189 40.4073 40.5066
CA 17.6387 3.99519 51.9327
CA 15.5319 21.6253 38.3464
CA 36.5398 32.9595 85.0723
CA 13.4412 22.1131 39.1608
CA 1.58985 26.9754 33.3502
