489

CA 12.5523 14.8782 46.1666
CA 30.5813 19.1199 53.6821
CA 24.4583 16.2603 48.4964
CA -0.912135 18.4306 29.2965
CA -11.4728 28.3413 21.5454
CA 14.0036 4.60925 53.7111
CA 12.1381 19.5279 29.9623
CA 32.0957 18.6019 51.7197
CA 0.818682 16.944 69.0208
CA 13.9172 -14.119 58.3402
CA 25.8153 37.1246 48.2694
CA -12.0716 23.8762 31.39
CA 0.707743 31.7296 18.5982
CA 12.319 -11.4445 62.2073
CA 20.2514 -6.8387 59.9848
CA 31.9846 16.2889 58.6782
CA 9.26724 28.6139 46.8878
CA 30.7508 17.454 40.3572
CA 5.03605 29.9601 64.7138
CA 5.46543 29.277 38.6958
CA 5.32286 25.7199 28.2912
CA 2.08761 -13.6219 57.7761
CA -6.83864 33.285 43.8919
CA 17.3265 26.3042 84.2985
CA 13.4198 31.502 72.3747
CA 5.61931 35.8587 69.6186
CA 2.73687 31.0151 48.884
CA -12.1194 5.75603 54.1078
CA 25.7577 24.2403 81.7624
CA 25.6349 18.0152 83.8129
CA 29.5314 22.749 44.8707
CA -11.7258 37.2796 17.5792
CA -1.72922 37.0899 47.0865
CA -4.21852 9.22716 62.0088
CA 5.24445 9.57416 63.6227
CA 23.5985 27.3362 68.88
CA 6.46037 30.5549 60.7885
CA 21.7291 11.2343 73.0098
CA 20.7205 10.3107 58.9619
CA -5.56955 20.8482 6.82784
CA 2.41535 4.85303 63.865
CA 28.7101 15.2907 49.0865
CA 22.6164 6.20783 71.4143
CA 0.681738 0.953211 65.8972
CA -4.70962 20.7586 34.3283
CA 3.42823 21.7692 26.9531
CA 22.8505 0.949582 62.0561
CA 5.7881 32.1065 34.7459
CA -7.73023 32.4012 19.2999
CA 4.92924 -5.60246 55.7887
CA 12.4852 16.9286 43.1981
CA 24.3691 23.4846 65.8035
CA -3.06763 -2.2684 64.6987
CA -4.17025 25.2883 30.8102
CA -13.0927 30.9321 22.2367
CA 13.953 3.80583 49.9337
CA -2.39477 -0.96092 66.8076
CA 12.7673 32.1686 52.696
CA 31.0529 3.91278 70.9508
CA 4.80176 32.4379 57.6856
CA 18.1372 7.92412 49.3164
CA -19.6973 29.6357 20.6904
CA 16.8341 33.9669 37.6063
CA 27.3759 22.1374 51.5812
CA -3.31085 34.2865 75.658
CA -7.6636 16.6084 62.5147
CA -9.59226 25.8612 14.4946
CA -7.65401 19.2986 4.6047
CA 6.88708 40.2151 40.4362
CA 19.9053 34.5768 58.0097
CA 17.8423 27.5778 55.0314
CA -4.75119 2.85145 64.4934
CA 10.5872 34.695 83.438
CA 13.1093 -0.196484 51.0027
CA 25.6927 3.61155 45.9256
CA -3.14039 14.6207 37.0108
CA -3.21724 38.8605 76.5853
CA 0.457592 18.5059 67.6595
CA 10.8641 26.9685 37.8816
CA 26.2489 24.9988 71.1243
CA -8.63791 26.3008 17.4798
CA 1.73933 37.5182 19.2473
CA 21.3115 38.6673 51.9353
CA 24.1241 -0.189231 58.1939
CA 1.48196 6.45962 64.6703
CA -2.85009 31.8447 84.2273
CA 2.88135 23.2333 25.667
CA 11.3446 23.2524 35.698
CA 1.37072 34.7473 84.0489
CA 30.6172 22.7301 61.352
CA 1.74009 25.9921 37.589
CA 0.287195 24.4726 41.0116
CA 12.8798 11.8268 48.6336
CA 28.0981 -3.31632 70.6851
CA 1.51375 42.0511 17.589
CA 30.6131 21.9919 63.5157
CA 19.7934 16.2364 34.8523
CA 17.0147 20.218 32.8693
CA 19.3802 21.0333 31.6974
CA 7.47005 32.5826 62.957
CA 20.5514 22.1631 48.2688
CA 19.5405 38.4192 50.9998
CA 8.21787 21.143 49.2576
CA 11.4014 32.4092 74.9913
CA -8.04675 29.4089 83.8772
CA 31.5964 25.3775 61.0234
CA 15.2867 29.8123 77.09
CA 23.6879 -6.49345 58.3311
CA -0.648425 34.6212 65.1773
CA 11.1679 22.9516 27.6664
CA 1.81555 19.2533 20.9519
CA 34.2097 14.4631 57.816
CA 8.09138 24.6336 60.8574
CA 3.08087 16.5747 29.9191
CA 15.0511 21.0766 50.7428
CA 8.20868 14.7914 33.8059
CA 15.5416 0.560656 46.9418
CA 0.662321 -9.72832 60.0449
CA 28.1505 29.9287 56.6155
CA 23.4335 3.29496 76.7513
CA 8.64159 7.52172 61.2419
CA 8.62777 -1.92954 57.9503
CA 21.8635 24.3129 59.2669
CA 8.99122 -1.89377 62.9058
CA 10.1203 -2.4676 64.9293
CA 8.02825 19.0546 32.5615
CA 9.30485 17.3252 33.6861
CA -9.56794 21.2145 18.4343
CA 30.5682 7.23287 45.8518
CA 3.90965 42.5991 41.6071
CA 15.7297 16.4765 44.655
CA 21.4213 23.1306 44.8063
CA 26.3417 11.3258 45.7872
CA 21.587 37.3524 66.6981
CA -1.72474 24.4112 40.5405
CA -12.7083 24.4569 25.5502
CA -1.25566 6.68937 75.0362
CA -1.69277 30.2039 85.6171
CA 0.958692 17.8463 29.4263
CA -3.01679 21.9318 29.8628
CA -1.8847 41.9869 17.4284
CA 21.4762 17.6851 55.4265
CA 28.3266 7.52889 35.2795
CA 21.5985 15.4835 75.2428
CA -6.51736 5.24585 55.5386
CA 24.7383 36.2006 65.4561
CA 6.30622 -6.05772 64.2073
CA 27.2902 30.2377 45.1192
CA 28.4463 25.8745 76.7582
CA 9.1575 -7.5494 64.1291
CA 30.9562 16.6522 46.037
CA -14.755 8.37458 54.0442
CA 24.0055 8.30646 62.8014
CA 23.8776 29.0133 90.1129
CA 5.38153 35.2272 60.2019
CA -1.85094 33.9618 82.6628
CA 12.2323 31.3344 68.1498
CA 22.2623 26.4331 86.2793
CA -7.57764 28.7233 86.4795
CA -5.86314 41.0356 15.7668
CA -19.1778 26.6705 19.4685
CA 13.4871 20.1419 50.4562
CA 18.6746 14.1121 63.1304
CA 11.128 20.4049 38.2041
CA -3.75962 -13.2918 51.5624
CA -0.129903 21.6357 65.598
CA -5.45452 -0.754316 59.9501
CA 8.93961 47.7777 76.9742
CA 25.7772 5.29797 44.1102
CA 24.9894 20.3518 82.6946
CA 6.70818 26.0041 59.3394
CA -6.28371 21.5589 30.1963
CA 6.64425 20.2891 48.0538
CA -2.59888 6.78257 68.0202
CA -2.92205 4.89662 56.3177
CA 3.33955 36.0293 37.4975
CA 10.5055 32.3108 54.2251
CA 18.2221 -16.4271 60.1044
CA 23.0761 -4.93213 48.1481
CA 14.5971 25.1252 53.1079
CA 2.08335 33.663 47.7254
CA 28.5147 8.49922 44.7607
CA -3.74255 20.099 37.0113
CA 13.8729 8.34287 48.9357
CA -12.2451 34.5725 18.3972
CA -12.433 28.1585 30.116
CA 1.7263 20.1129 73.8485
CA 12.7959 24.7524 31.4028
CA 4.53314 1.29401 66.262
CA 4.963 31.1869 53.937
CA 3.53607 31.4065 15.9798
CA 26.1703 9.38756 62.674
CA 25.3445 33.9788 66.6264
CA 12.2784 -6.34418 61.1166
CA -7.84159 21.0997 34.3043
CA -0.00578783 28.3902 42.2707
CA 11.728 20.255 32.9276
CA 17.6881 9.02117 65.0345
CA 5.08942 47.3806 76.6677
CA 28.6552 10.1057 43.583
CA 2.08534 41.379 74.7948
CA 17.277 1.80257 51.7194
CA 2.87749 15.5817 31.6175
CA -4.69917 16.0426 32.8277
CA 9.23066 17.6959 50.7164
CA 26.9519 6.11358 41.1696
CA 28.2106 19.9294 50.4592
CA 12.8869 29.7723 85.2453
CA 34.6466 16.345 41.7141
CA -10.9927 17.7881 21.7202
CA 9.04232 25.7079 79.2638
CA 33.8721 17.6797 44.0969
CA 12.2696 -0.651773 65.1235
CA -6.81254 26.5211 46.7797
CA 24.6703 35.053 50.0183
CA 25.4048 28.3784 52.5735
CA 27.88 12.3099 45.7639
CA 6.96971 28.5306 80.2207
CA 24.48 4.86051 33.0961
CA 22.6643 20.0387 37.9026
CA 16.2845 28.732 85.1206
CA 4.60458 24.3569 42.5638
CA 10.4148 22.3036 33.9155
CA 0.0704761 25.9877 42.3668
CA 14.1617 6.53016 47.9326
CA 27.2388 3.77024 69.3872
CA 8.39925 27.8424 60.9221
CA 22.4038 39.2594 53.2458
CA 6.80617 8.36072 51.423
CA 5.05916 33.9649 74.9698
CA 23.7622 -4.58779 56.6901
CA 28.0466 27.5649 57.921
CA 2.6808 32.8403 63.8632
CA 10.436 29.2417 84.9463
CA 2.32616 20.7895 22.4952
CA 15.7824 9.02396 45.8836
CA 12.5776 33.4052 86.7001
CA 26.469 2.46757 61.9374
CA 5.00411 12.8471 33.3807
CA -4.96683 2.19359 70.5196
CA 2.02131 22.1267 31.1075
CA -3.42838 37.2357 78.6479
CA -8.96344 37.4341 22.4093
CA -2.31318 18.8126 70.2522
CA -5.4671 7.66718 60.6765
CA 12.2417 17.5102 52.1016
CA -2.34114 3.67296 57.7881
CA 16.6274 24.8553 34.6145
CA 15.4556 31.363 41.6999
CA -17.1367 19.7867 17.429
CA -7.90791 38.3177 19.9353
CA -2.84 30.6145 15.6702
CA 14.0726 14.9489 43.3146
CA 12.5747 -7.23237 63.5629
CA 5.05969 32.0418 65.8047
CA 24.6429 6.41446 41.7441
CA -6.98377 36.2582 21.615
CA 11.9265 22.2547 48.0446
CA 33.7753 18.6107 42.3064
CA 18.0721 20.0103 49.6843
CA 26.6274 26.7196 59.5341
CA 27.7606 22.5735 47.974
CA -5.27672 9.78763 78.3164
CA 20.183 -1.7582 58.2814
CA 3.38386 43.1638 75.8468
CA 21.4748 21.693 54.1185
CA 25.4987 22.5428 49.1912
CA 28.5074 37.7438 47.7018
CA 6.91208 -11.594 60.6542
CA 29.0011 15.6823 58.0481
CA 33.3343 20.3983 48.5859
CA 12.3962 -12.9045 63.9456
CA 25.5319 40.4152 54.2078
CA 3.37468 34.4862 66.8801
CA -12.6145 26.4341 17.354
CA 1.41019 -14.3045 56.1716
CA 12.942 4.7968 46.6861
CA -1.72972 8.28304 72.5201
CA 20.0718 7.28771 60.7093
CA -2.45928 36.2425 80.5342
CA 34.4778 5.67005 69.9788
CA -0.465868 31.6462 75.5766
CA 11.6381 -5.15294 62.7544
CA 3.90894 29.6404 61.8062
CA 17.6893 19.2942 52.9736
CA 20.398 4.71512 72.4781
CA 4.44582 36.3513 48.5852
CA -8.5911 19.6282 31.4662
CA 0.12652 -4.076 68.9537
CA 8.90137 -8.82212 62.2543
CA 25.9448 23.6162 47.2001
CA 4.11943 20.7089 51.512
CA 18.2712 37.0692 68.6757
CA -5.42358 38.9109 82.5376
CA 0.519069 -5.87721 68.6771
CA 21.348 32.6174 41.5844
CA -6.91693 6.71842 64.8146
CA 26.8151 24.9036 54.7973
CA 10.169 40.7551 70.1789
CA -2.41173 7.74661 64.6236
CA 14.4056 23.8623 49.4403
CA 11.8239 36.1928 48.5383
CA -14.8246 25.1297 16.6994
CA 19.287 -5.92381 64.0702
CA -14.63 36.6798 18.5781
CA -2.14321 29.3045 72.7894
CA -6.77195 8.5054 66.6036
CA -5.58404 27.9221 14.8075
CA -3.85858 6.46502 60.4592
CA 5.47098 9.1517 66.7583
CA 16.8599 9.05137 48.0455
CA 22.2097 36.1414 59.1551
CA 3.35942 -5.16182 69.6507
CA 16.0116 21.9645 37.6565
CA 16.8517 32.6422 80.0748
CA 5.4555 27.6728 42.0563
CA 11.8487 37.819 53.9514
CA 16.0634 28.7224 48.035
CA 8.00632 37.1361 71.5023
CA 20.8596 23.7059 54.8903
CA 18.677 -1.56803 56.5728
CA -5.07866 8.64237 69.917
CA 23.8312 26.4808 70.9336
CA -1.54944 15.7242 67.1409
CA -0.806807 39.5065 78.5607
CA 7.43922 34.4499 48.0577
CA 2.86008 9.91618 65.4243
CA 25.339 33.8425 62.1161
CA 27.0526 18.2579 56.0134
CA 11.7801 15.0731 50.9696
CA 15.421 -4.91102 53.3213
CA 2.50004 34.4565 17.9124
CA 19.271 -8.28061 61.372
CA 28.6825 5.10105 44.9126
CA 21.3685 39.6355 55.3375
CA -0.0999963 17.4449 31.3207
CA -4.16579 33.8899 16.8561
CA 22.3759 21.0269 52.0588
CA 24.234 21.8544 39.1748
CA 11.5296 27.0339 76.7744
CA 4.87522 10.6837 29.6946
CA 10.9126 23.5448 84.1418
CA 17.8292 15.104 58.3452
CA 12.1637 -1.56515 60.0431
CA 13.2807 35.0136 50.6705
CA 25.8491 36.6934 59.4098
CA 26.881 27.3098 50.9485
CA 5.39975 33.2622 64.5219
CA -4.86358 25.9776 12.5168
CA 11.8549 32.7645 50.9788
CA 6.91255 29.8301 72.9975
CA 2.99262 32.693 73.6548
CA 0.747051 -3.93347 62.7272
CA -11.864 7.37133 51.7561
CA 5.86007 17.9982 37.4035
CA 22.5514 -7.77398 53.929
CA 0.190512 20.944 38.0942
CA 15.3706 9.50267 41.7075
CA 36.8121 18.0097 43.6931
CA 11.847 16.5286 49.5392
CA -6.4795 17.8253 60.7274
CA -20.4475 25.9003 15.2565
CA -8.01899 3.59724 66.3824
CA 0.643043 2.70024 65.3928
CA 30.5477 25.3763 56.3835
CA -0.322893 -8.20383 65.4782
CA 20.5465 27.5589 85.5092
CA -10.3473 25.0898 26.9644
CA 2.63963 28.9682 45.7751
CA 17.2177 6.01628 38.5883
CA 10.0006 18.6992 32.1588
CA 27.9031 1.34586 70.3359
CA -13.2198 16.8128 60.8936
CA 27.3281 23.8997 75.7031
CA 1.86745 29.3628 54.8749
CA 11.5417 28.0648 40.359
CA 2.89843 34.0657 56.1321
CA 30.0188 6.95518 43.1835
CA 10.1623 21.0405 44.6641
CA 3.27141 35.7438 62.1462
CA 1.3352 -2.88687 65.7152
CA 1.11007 16.4601 71.1745
CA 32.0388 22.3561 44.5368
CA 17.9666 21.7619 37.8491
CA 20.8782 -3.98626 54.0303
CA 5.07646 25.3861 78.4496
CA 26.2761 6.16854 60.6974
CA 21.7556 33.3166 57.4748
CA 29.3714 8.67313 40.4853
CA 12.4333 27.9158 63.8949
CA -5.02404 16.379 6.01031
CA 4.96971 34.9179 62.1426
CA -12.531 31.4969 17.2943
CA -12.15 29.6764 16.3135
CA 16.4483 -5.57464 64.8406
CA 21.1655 7.37849 62.2101
CA -2.36085 25.0396 49.306
CA 29.7004 21.1227 41.6855
CA 13.0041 6.65435 40.7674
CA -6.95464 18.6641 22.7369
CA -9.07699 33.7415 22.7398
CA -6.83888 24.4319 37.4787
CA 20.148 21.1712 43.6047
CA -7.08442 23.8362 10.8967
CA 19.5412 6.89703 48.3658
CA 24.0783 27.1688 77.1756
CA 35.3211 14.6521 44.5216
CA 4.53349 20.5245 16.0978
CA -22.4468 30.9584 23.2705
CA 24.2039 38.7917 51.7441
CA 6.73613 -7.76054 58.8713
CA 16.0087 34.0379 74.718
CA -2.41865 11.477 73.9866
CA 10.1453 14.6378 31.4815
CA 26.7246 6.84266 34.7398
CA 25.7454 22.3942 82.6631
CA 4.65662 -12.6239 55.0143
CA 2.5103 25.9363 43.6453
CA 23.7373 -2.78635 47.5631
CA 7.34067 26.7714 32.1438
CA -9.64512 18.0545 60.2555
CA 24.4087 18.5167 38.692
CA 16.4844 34.7631 46.853
CA -3.11907 6.09313 62.7793
CA 23.9767 23.0024 68.9559
CA -0.666561 7.41977 55.9436
CA 11.6056 19.7187 49.8339
CA 18.8488 -18.1852 55.5163
CA 12.9621 25.0565 38.0962
CA 24.9498 20.1453 54.5201
CA 13.2253 27.5411 37.3938
CA -1.2062 14.9319 65.2622
CA 17.6202 32.344 39.259
CA 10.6539 29.34 53.138
CA -11.3485 5.45298 56.3836
CA 10.9781 19.6439 28.0424
CA -4.23799 35.0497 44.9147
CA 15.9765 2.719 49.7512
CA 26.5181 29.1561 68.4942
CA 20.8846 18.0982 34.5938
CA 3.92572 -8.44996 57.1727
CA 9.62723 34.748 81.0664
CA 1.48763 48.1633 73.5069
CA 22.0142 34.5004 47.4034
CA 22.2072 28.8568 85.9671
CA 4.74646 11.6635 51.2729
CA 8.01989 11.3276 50.6226
CA 3.26825 26.8429 38.3194
CA 9.28262 24.7981 41.1498
CA -0.456282 -13.4379 53.4042
CA -2.57488 10.4846 63.4845
CA 24.6932 1.75233 66.5791
CA 11.2653 32.2328 45.8109
CA 23.0659 17.42 34.5776
CA 18.6941 24.6432 84.1457
CA 0.737916 21.2639 48.9826
CA 0.740604 8.84531 75.8886
CA 19.1449 11.7663 55.4811
CA 22.0335 5.20385 61.2513
CA 31.0096 27.1683 46.6561
CA 12.3868 34.1276 84.6241
CA 14.145 32.4666 68.9011
CA 32.0918 24.3443 64.9964
CA 5.34961 35.1083 66.6989
CA 13.9764 1.69593 51.435
CA 3.35345 -5.9602 73.0512
CA -13.5738 30.3623 27.4799
CA 26.1402 20.982 52.5915
CA 19.3165 18.5151 54.6719
CA 20.9169 5.30684 51.5844
CA 7.82554 31.0189 55.187
CA -5.38998 18.5562 65.0221
CA 25.4836 -1.61218 46.6572
CA 13.0741 -10.7151 66.5215
CA 14.4259 -5.68662 54.9766
CA 3.51221 32.7626 59.5094
CA 25.3189 6.05019 64.0937
CA 17.2367 -10.6144 64.9707
CA 9.83223 19.7087 48.8263
CA -10.8946 27.3359 27.906
CA -13.1997 18.5962 17.0735
CA 15.4098 32.1363 57.3004
CA 24.3446 35.5101 52.9674
CA 3.26189 40.4073 40.5066
CA 18.0086 22.2692 65.4553
CA 19.9941 23.0715 64.0665
CA -9.9891 34.1322 20.7049
CA -0.0108812 23.4915 42.8962
CA -3.98058 35.7799 77.2997
