489

CA 12.5523 14.8782 46.1666
CA 30.5813 19.1199 53.6821
CA 24.4583 16.2603 48.4964
CA 0.753379 38.6797 45.9826
CA -11.4728 28.3413 21.5454
CA 14.0036 4.60925 53.7111
CA 17.7725 22.1701 34.2487
CA 19.8519 19.6741 52.0041
CA 0.818682 16.944 69.0208
CA -6.62744 -10.6061 51.9704
CA 25.8153 37.1246 48.2694
CA -12.0716 23.8762 31.39
CA 0.707743 31.7296 18.5982
CA 1.2488 22.2856 25.7464
CA 20.2514 -6.8387 59.9848
CA 31.9846 16.2889 58.6782
CA 9.26724 28.6139 46.8878
CA 30.7508 17.454 40.3572
CA -3.93275 1.73479 65.6805
CA 13.7275 39.7195 55.9811
CA 25.4424 35.5137 63.7516
CA 13.9206 32.0012 48.61
CA 6.46422 -5.82665 67.8728
CA 17.3265 26.3042 84.2985
CA 16.7112 35.6251 62.3037
CA 30.5683 38.1762 50.6504
CA -21.4545 30.8923 22.7294
CA -12.1194 5.75603 54.1078
CA 25.7577 24.2403 81.7624
CA -11.2318 20.5619 57.705
CA -2.66131 14.069 61.7793
CA 26.8201 28.6072 60.6216
CA -1.72922 37.0899 47.0865
CA 20.7399 32.9898 53.1712
CA 9.92796 33.8142 57.2662
CA 23.5985 27.3362 68.88
CA -12.5382 28.4149 32.4884
CA 21.7291 11.2343 73.0098
CA 12.5342 47.6715 78.1253
CA -5.56955 20.8482 6.82784
CA 9.76298 36.5982 49.1683
CA 28.7101 15.2907 49.0865
CA 8.76053 12.3238 49.4777
CA 0.681738 0.953211 65.8972
CA -4.70962 20.7586 34.3283
CA 3.5224 3.92593 63.9747
CA 18.1423 28.8451 50.266
CA 5.7881 32.1065 34.7459
CA -7.73023 32.4012 19.2999
CA 4.92924 -5.60246 55.7887
CA 5.48298 40.5286 69.6941
CA -8.97298 20.2859 59.3115
CA 6.12515 41.4928 73.8267
CA 19.4545 35.1016 62.0115
CA 25.886 25.2768 52.3967
CA 24.8213 29.6985 46.9196
CA 28.7672 30.0384 49.6046
CA -6.06913 9.5132 74.9838
CA -14.4527 26.6103 26.6603
CA 28.0891 27.0862 66.0252
CA 4.96748 -7.03478 67.3125
CA 25.7983 35.3472 55.9696
CA 6.35972 31.6789 74.9299
CA -8.19697 18.1518 16.3499
CA -3.13301 38.7611 81.4885
CA -7.6636 16.6084 62.5147
CA 25.2983 37.3769 61.1851
CA 19.4272 36.755 55.5488
CA 6.88708 40.2151 40.4362
CA 19.9053 34.5768 58.0097
CA -8.94715 25.3629 31.252
CA 21.3446 23.8107 75.6062
CA 10.9806 12.3394 45.4726
CA 23.2389 25.7022 50.6608
CA 25.6927 3.61155 45.9256
CA -3.14039 14.6207 37.0108
CA 24.7397 26.8072 66.1596
CA 0.457592 18.5059 67.6595
CA 0.137065 20.7677 40.5691
CA 13.5125 40.2094 68.9185
CA -8.63791 26.3008 17.4798
CA 12.8495 18.166 48.6923
CA 17.5473 9.84949 40.0052
CA 24.1241 -0.189231 58.1939
CA 22.9572 28.0895 74.4555
CA -2.85009 31.8447 84.2273
CA 2.88135 23.2333 25.667
CA 11.3446 23.2524 35.698
CA 20.5185 9.09773 74.7375
CA 0.126595 37.9929 80.2609
CA 1.74009 25.9921 37.589
CA 0.287195 24.4726 41.0116
CA 12.8798 11.8268 48.6336
CA 3.51539 -7.26896 65.3852
CA 5.56672 34.0333 67.8557
CA 28.9606 22.136 58.018
CA -11.2437 35.1122 22.0302
CA 10.2459 -8.54766 69.7301
CA 7.4427 33.8718 39.5974
CA 22.1922 26.3 55.1872
CA -5.76133 25.8861 33.5393
CA 20.7751 16.8646 53.975
CA 24.3517 -0.0863966 47.5773
CA 11.2226 17.7141 31.2775
CA -8.04675 29.4089 83.8772
CA 16.708 27.076 79.3319
CA 23.062 37.1524 49.6613
CA 23.6879 -6.49345 58.3311
CA 33.2894 20.5668 54.0884
CA -4.34128 7.54144 79.4655
CA 1.81555 19.2533 20.9519
CA 6.55207 22.33 39.9604
CA 29.7441 18.4946 43.2061
CA 3.08087 16.5747 29.9191
CA 15.0511 21.0766 50.7428
CA -4.44075 11.24 79.2333
CA 12.6522 30.0161 53.2137
CA 0.662321 -9.72832 60.0449
CA 0.930829 -1.31273 65.9934
CA 28.2212 23.9267 68.8633
CA 0.33463 33.8157 46.0307
CA 8.62777 -1.92954 57.9503
CA 20.8547 32.1336 50.7401
CA 8.99122 -1.89377 62.9058
CA -9.05246 20.0655 57.4193
CA 8.02825 19.0546 32.5615
CA 8.61584 32.5829 87.363
CA -9.56794 21.2145 18.4343
CA 24.0276 28.6808 53.65
CA -6.30934 15.6955 59.8634
CA -8.68419 15.201 69.8551
CA 15.2126 26.7453 82.2502
CA 4.75043 0.98876 68.0634
CA 25.9038 5.66522 66.2944
CA -1.51459 -4.40238 65.7764
CA 23.682 28.2955 50.0158
CA -1.25566 6.68937 75.0362
CA -0.966988 40.1708 46.6801
CA 0.0972454 40.2013 73.4407
CA -3.01679 21.9318 29.8628
CA -1.8847 41.9869 17.4284
CA 10.3655 0.430781 72.2209
CA 28.3266 7.52889 35.2795
CA 21.5985 15.4835 75.2428
CA -6.51736 5.24585 55.5386
CA 28.0916 36.5289 52.2225
CA 6.30622 -6.05772 64.2073
CA 27.2902 30.2377 45.1192
CA -7.06936 30.9313 43.1
CA 17.5649 8.81298 55.3921
CA 10.5786 5.27367 45.8902
CA 31.3136 4.35238 46.5166
CA 3.67486 45.234 76.6527
CA 0.235044 35.3234 49.2906
CA 6.32387 18.5266 33.233
CA 9.17112 30.8974 84.1501
CA 9.27887 29.9189 71.1293
CA 22.2623 26.4331 86.2793
CA 1.38858 17.5078 29.6381
CA -5.86314 41.0356 15.7668
CA -19.1778 26.6705 19.4685
CA 7.29859 29.5504 62.8307
CA 18.6746 14.1121 63.1304
CA 15.539 10.9231 40.38
CA -3.75962 -13.2918 51.5624
CA 8.38629 47.9009 73.8758
CA 24.9214 31.0444 60.4908
CA 8.93961 47.7777 76.9742
CA 28.3887 21.4026 68.9434
CA -24.5456 23.9057 16.6475
CA 1.7746 -4.84913 61.0481
CA -2.05354 7.43058 80.1749
CA -4.27679 3.93274 61.8293
CA -2.59888 6.78257 68.0202
CA -2.92205 4.89662 56.3177
CA 3.33955 36.0293 37.4975
CA 0.627789 43.2513 76.8713
CA 12.3933 7.32071 50.53
CA -2.41733 14.953 63.4656
CA 14.5971 25.1252 53.1079
CA 2.08335 33.663 47.7254
CA 26.967 6.37554 64.227
CA -3.74255 20.099 37.0113
CA -1.6775 20.936 28.773
CA 17.5301 30.1306 45.2297
CA 18.5862 35.0143 53.5757
CA 26.2067 20.5826 56.3338
CA 25.1905 1.96505 47.7408
CA 4.40973 20.9038 33.8965
CA 27.5087 21.2743 76.4815
CA 29.3489 2.43667 65.3463
CA 0.378506 49.6118 74.1171
CA 25.3445 33.9788 66.6264
CA 12.2784 -6.34418 61.1166
CA 7.14607 33.1829 59.5524
CA 5.28759 32.3277 40.791
CA 11.728 20.255 32.9276
CA -3.53861 37.208 72.6349
CA 5.08942 47.3806 76.6677
CA 28.6552 10.1057 43.583
CA 2.08534 41.379 74.7948
CA 9.64196 17.3798 42.354
CA 2.87749 15.5817 31.6175
CA 27.5002 5.55201 34.3095
CA 11.3556 6.21414 51.8667
CA 24.6185 24.3517 43.5885
CA -15.658 25.1952 31.3498
CA 11.0228 18.2539 47.5813
CA 34.6466 16.345 41.7141
CA -10.9927 17.7881 21.7202
CA 9.04232 25.7079 79.2638
CA 30.8643 13.9024 46.0124
CA 0.94905 34.2441 58.8487
CA 7.41713 26.5315 63.4352
CA 13.5749 18.1111 30.6273
CA 13.8558 24.0065 47.3248
CA 27.88 12.3099 45.7639
CA -10.7594 28.2488 16.3287
CA 24.48 4.86051 33.0961
CA 22.6643 20.0387 37.9026
CA 17.0285 3.85236 50.3708
CA 4.60458 24.3569 42.5638
CA 10.4148 22.3036 33.9155
CA 6.01973 22.4869 85.0911
CA 14.1617 6.53016 47.9326
CA 17.3231 19.8512 61.3915
CA 4.68077 -10.217 54.6095
CA 34.1787 14.4288 42.6089
CA 6.80617 8.36072 51.423
CA 22.8087 42.195 54.6149
CA 23.7622 -4.58779 56.6901
CA 9.64807 33.4536 38.8155
CA 2.6808 32.8403 63.8632
CA 10.436 29.2417 84.9463
CA 31.1112 11.4467 44.4606
CA 4.79284 37.6583 70.5441
CA 6.77374 39.6026 88.807
CA 6.83773 51.0246 75.4105
CA 25.721 23.5191 45.0169
CA -4.96683 2.19359 70.5196
CA 2.02131 22.1267 31.1075
CA 21.9278 4.69915 57.0387
CA 16.932 7.05493 60.5785
CA 17.1544 22.8903 38.8097
CA 9.58417 4.13478 48.3276
CA 19.5453 33.5982 44.9804
CA 17.1044 6.73891 51.1622
CA 16.6274 24.8553 34.6145
CA 15.4556 31.363 41.6999
CA -1.64841 30.0165 81.5369
CA -7.90791 38.3177 19.9353
CA 18.8669 37.8923 45.6504
CA 28.1349 39.6607 47.2474
CA 16.2893 6.41394 48.1687
CA 9.7128 15.8423 48.4499
CA 17.7355 17.8102 55.9117
CA 22.0946 29.9363 82.7338
CA 25.5448 5.7847 71.587
CA 11.3247 26.0147 50.3149
CA 21.3637 37.4293 64.3588
CA 26.6274 26.7196 59.5341
CA 27.7606 22.5735 47.974
CA -5.27672 9.78763 78.3164
CA -10.6276 29.8171 17.2681
CA 3.38386 43.1638 75.8468
CA 21.4748 21.693 54.1185
CA -9.97693 36.9138 24.7232
CA 28.5074 37.7438 47.7018
CA 22.349 -2.32619 58.4596
CA 29.0011 15.6823 58.0481
CA 33.3343 20.3983 48.5859
CA 11.2668 4.01004 54.2108
CA 25.5319 40.4152 54.2078
CA 21.9758 6.26883 65.272
CA -12.6145 26.4341 17.354
CA -8.4041 17.7467 66.3156
CA 13.5139 29.1913 48.7268
CA 29.8893 13.0872 57.4062
CA 11.7335 19.1907 40.1412
CA -2.45928 36.2425 80.5342
CA 16.2611 -6.62572 52.2014
CA 0.714335 3.81195 63.3127
CA -0.110029 11.0725 32.9174
CA 3.90894 29.6404 61.8062
CA 17.6893 19.2942 52.9736
CA 21.2295 13.4004 59.2008
CA 4.44582 36.3513 48.5852
CA 3.41022 7.64927 74.61
CA 31.2561 8.78614 40.4406
CA -11.184 21.574 29.4312
CA 31.4317 17.3951 47.7861
CA -9.18806 30.7412 47.4242
CA 33.1674 22.4588 41.2866
CA 26.8447 15.3513 37.3166
CA 19.306 30.2935 82.6423
CA -0.46022 31.5915 84.1113
CA -6.91693 6.71842 64.8146
CA 26.8151 24.9036 54.7973
CA 33.7196 17.3313 39.3391
CA 5.5037 14.7302 70.5103
CA 20.2431 36.8509 69.5614
CA 11.8239 36.1928 48.5383
CA -14.8246 25.1297 16.6994
CA 19.287 -5.92381 64.0702
CA -14.63 36.6798 18.5781
CA -2.77381 42.6875 82.5931
CA 16.611 26.7324 39.3437
CA -5.58404 27.9221 14.8075
CA -3.85858 6.46502 60.4592
CA 9.27015 23.0654 81.0352
CA 12.7278 -9.58996 58.3211
CA -3.75079 -0.618644 73.7026
CA 3.35942 -5.16182 69.6507
CA 29.6647 24.0026 70.8373
CA 2.39959 21.9452 45.0096
CA 5.4555 27.6728 42.0563
CA 14.8812 17.0018 45.8547
CA 19.9628 35.5922 44.4014
CA 8.00632 37.1361 71.5023
CA -4.37783 15.6764 21.3177
CA 4.96627 38.3905 74.6531
CA -5.07866 8.64237 69.917
CA -8.76007 13.8909 61.4946
CA -1.54944 15.7242 67.1409
CA 27.4627 8.56574 32.1327
CA 6.38147 2.58388 71.0995
CA 2.86008 9.91618 65.4243
CA 3.33689 10.4112 76.413
CA 22.6918 12.1732 57.6878
CA 11.7801 15.0731 50.9696
CA 15.421 -4.91102 53.3213
CA 7.97795 34.6145 72.3242
CA -2.6635 39.3258 78.9467
CA 8.21065 27.8841 85.9105
CA 21.3685 39.6355 55.3375
CA -5.62817 8.37213 59.9921
CA -4.16579 33.8899 16.8561
CA -2.915 28.363 84.8681
CA -2.86334 42.3113 78.7456
CA 11.5296 27.0339 76.7744
CA -13.2006 27.3572 20.2559
CA -1.66778 37.6364 76.8888
CA 4.3525 37.7485 88.0349
CA -7.31754 31.7155 46.5194
CA 29.5383 24.1158 73.0212
CA 9.88174 38.1846 74.5033
CA 26.881 27.3098 50.9485
CA 22.5989 21.916 62.8261
CA 9.78322 -3.59074 65.3842
CA 11.8549 32.7645 50.9788
CA 16.9749 18.8181 49.3931
CA 2.99262 32.693 73.6548
CA 14.6156 5.53544 50.0123
CA -21.259 24.298 19.825
CA 5.86007 17.9982 37.4035
CA -6.60517 30.0916 44.9065
CA 16.915 19.4938 28.0487
CA 15.3706 9.50267 41.7075
CA 36.8121 18.0097 43.6931
CA 11.847 16.5286 49.5392
CA 6.92736 26.9543 84.0401
CA -6.67976 34.1944 22.7292
CA 6.74408 36.1558 51.846
CA 31.9455 26.9528 44.1446
CA 30.5477 25.3763 56.3835
CA 31.1096 29.7889 57.0761
CA 11.5665 30.0901 72.5342
CA -10.3473 25.0898 26.9644
CA 15.0355 16.3585 47.7276
CA 33.0661 6.93328 43.8309
CA -5.28364 18.793 19.1352
CA 27.9031 1.34586 70.3359
CA -8.84693 34.0933 17.9069
CA 34.0013 4.68478 43.6691
CA 7.41561 36.8872 83.3707
CA 11.5417 28.0648 40.359
CA 2.89843 34.0657 56.1321
CA 8.40651 31.3412 51.4522
CA 11.4418 37.2139 72.4773
CA 11.1132 14.7797 48.0046
CA -0.317839 9.92491 77.5586
CA 9.33214 15.7593 30.3451
CA 15.0081 19.73 30.5398
CA -1.85405 1.13403 63.5114
CA 20.8782 -3.98626 54.0303
CA 3.41435 19.197 26.1882
CA 7.94623 38.3565 72.9574
CA -1.00911 34.045 76.7154
CA 29.3714 8.67313 40.4853
CA -20.1784 27.8178 22.3308
CA 5.25355 42.1359 39.3141
CA 8.02745 49.1137 80.3424
CA 9.0526 33.8176 49.5533
CA 19.7129 34.8962 64.3498
CA 16.4483 -5.57464 64.8406
CA 21.1655 7.37849 62.2101
CA 0.378275 37.743 40.395
CA 29.7004 21.1227 41.6855
CA 14.6556 41.3875 56.7146
CA -0.23015 -3.56087 70.3413
CA -9.07699 33.7415 22.7398
CA -6.83888 24.4319 37.4787
CA 23.0993 23.7392 60.0037
CA -7.08442 23.8362 10.8967
CA 19.7596 22.7727 40.8519
CA -16.4504 29.4591 22.8187
CA 5.57541 8.95926 64.8668
CA 10.4037 46.5799 78.3893
CA 25.8476 19.8722 74.2628
CA 24.2039 38.7917 51.7441
CA 1.01705 36.0814 45.9001
CA 17.6839 42.3765 55.7195
CA 3.53928 13.261 30.5731
CA -3.35866 26.7526 13.1833
CA 21.8179 25.5325 61.0449
CA 25.7454 22.3942 82.6631
CA 4.65662 -12.6239 55.0143
CA 16.0387 12.3383 59.9718
CA 21.1468 28.1129 57.7106
CA 7.34067 26.7714 32.1438
CA -9.64512 18.0545 60.2555
CA 24.4087 18.5167 38.692
CA 15.1721 8.43345 43.9644
CA 5.55048 28.542 88.1157
CA -2.1087 30.9799 19.4997
CA -0.666561 7.41977 55.9436
CA 11.6056 19.7187 49.8339
CA 23.0816 14.7345 37.6842
CA 20.3333 21.4638 62.3777
CA 24.9498 20.1453 54.5201
CA 13.2253 27.5411 37.3938
CA 25.4531 24.9923 66.8871
CA 17.6202 32.344 39.259
CA 10.6539 29.34 53.138
CA -11.3485 5.45298 56.3836
CA 10.9781 19.6439 28.0424
CA -4.23799 35.0497 44.9147
CA -4.39195 13.5907 59.2749
CA 10.8465 28.6981 69.9942
CA 20.8846 18.0982 34.5938
CA 5.26419 18.2492 27.176
CA 4.3262 12.4068 79.803
CA 1.48763 48.1633 73.5069
CA 22.0142 34.5004 47.4034
CA 22.2072 28.8568 85.9671
CA -1.34016 10.6026 67.7889
CA 19.7932 28.0412 35.2578
CA 9.79407 33.0734 60.4246
CA 9.28262 24.7981 41.1498
CA -0.456282 -13.4379 53.4042
CA -2.57488 10.4846 63.4845
CA 24.6932 1.75233 66.5791
CA 26.2226 29.5081 81.856
CA 20.2031 24.4767 61.1329
CA 18.6941 24.6432 84.1457
CA 0.737916 21.2639 48.9826
CA 0.740604 8.84531 75.8886
CA 20.8778 9.61763 57.0374
CA 22.0335 5.20385 61.2513
CA 14.1211 29.4631 73.6974
CA 25.7073 16.4442 75.8249
CA 4.99158 35.2744 87.13
CA 32.0918 24.3443 64.9964
CA 2.81503 7.19298 58.6409
CA 13.9764 1.69593 51.435
CA -5.60576 35.5668 21.3606
CA -13.5738 30.3623 27.4799
CA 26.1402 20.982 52.5915
CA 19.3165 18.5151 54.6719
CA 9.02245 13.7725 46.8353
CA 7.82554 31.0189 55.187
CA -5.38998 18.5562 65.0221
CA -4.20427 14.4411 63.3084
CA 5.40226 22.2953 34.6891
CA 3.84065 -1.44057 62.0638
CA 8.99931 38.7987 69.6848
CA -6.57051 25.1627 15.5855
CA 20.8476 25.8362 58.4713
CA 9.83223 19.7087 48.8263
CA -10.8946 27.3359 27.906
CA -13.1997 18.5962 17.0735
CA 2.47858 1.01641 61.7861
CA 27.0541 37.9971 60.8138
CA 3.26189 40.4073 40.5066
CA 1.48982 21.9587 33.3351
CA 2.59588 24.2662 28.8001
CA 20.7441 30.118 44.4858
CA -0.0108812 23.4915 42.8962
CA 4.90004 -3.96795 67.3455
