489

CA 20.8656 24.7857 62.2189
CA 30.5813 19.1199 53.6821
CA -0.855855 18.412 28.6713
CA -7.74524 7.13298 60.9426
CA 9.86807 37.1288 46.2543
CA 14.0036 4.60925 53.7111
CA 5.76203 22.5341 42.873
CA 19.8519 19.6741 52.0041
CA 0.818682 16.944 69.0208
CA 19.6127 8.80783 58.0592
CA 30.2161 7.01206 51.8703
CA 13.9628 37.4422 72.0331
CA -5.55797 -12.6817 49.3871
CA 1.2488 22.2856 25.7464
CA -5.55636 24.576 17.7053
CA 31.9846 16.2889 58.6782
CA -3.30282 4.26642 81.1925
CA 18.1682 24.3895 87.1246
CA -3.93275 1.73479 65.6805
CA -3.83819 21.2665 60.298
CA 22.1156 27.7457 78.9379
CA -4.00733 18.2117 60.1048
CA 21.3648 24.9644 55.7036
CA 10.9403 20.3149 31.7344
CA 16.7112 35.6251 62.3037
CA 30.5683 38.1762 50.6504
CA 25.6472 41.0071 64.613
CA 14.4034 15.5372 53.3856
CA -3.50312 35.3552 74.9437
CA -11.2318 20.5619 57.705
CA 20.6098 39.4304 70.4196
CA 26.8201 28.6072 60.6216
CA 2.41989 33.928 50.5754
CA 20.7399 32.9898 53.1712
CA 23.7522 18.0959 74.8579
CA 23.5985 27.3362 68.88
CA -12.5382 28.4149 32.4884
CA -5.27205 -14.0453 47.9906
CA 13.5939 27.3951 86.4384
CA -5.56955 20.8482 6.82784
CA 5.04607 17.4577 35.3422
CA 28.7101 15.2907 49.0865
CA 8.76053 12.3238 49.4777
CA 1.73029 4.95009 60.7334
CA 18.1065 3.45609 57.1031
CA 3.5224 3.92593 63.9747
CA 18.1423 28.8451 50.266
CA -16.0673 30.1044 18.656
CA 19.1663 31.5764 54.044
CA 4.92924 -5.60246 55.7887
CA 20.4841 19.182 49.4348
CA 9.08183 37.3609 67.7786
CA 6.12515 41.4928 73.8267
CA 25.3483 7.459 73.5431
CA -10.2633 7.80738 55.0279
CA 24.8213 29.6985 46.9196
CA 13.6349 33.3832 85.2576
CA -2.0158 33.8139 85.2172
CA -14.4527 26.6103 26.6603
CA 28.0891 27.0862 66.0252
CA 4.96748 -7.03478 67.3125
CA 22.7123 8.13204 76.4278
CA 6.35972 31.6789 74.9299
CA -8.19697 18.1518 16.3499
CA 5.4534 18.9025 31.1232
CA 18.2431 27.8736 78.7089
CA 25.2983 37.3769 61.1851
CA 27.591 21.2793 49.5196
CA 6.88708 40.2151 40.4362
CA -3.14039 -0.633841 66.8484
CA -8.94715 25.3629 31.252
CA -6.58936 20.5675 60.9779
CA 18.9874 31.733 49.618
CA 11.3956 22.0694 77.9719
CA 25.6927 3.61155 45.9256
CA 17.7216 -5.72318 52.8407
CA -5.2461 26.6736 88.4583
CA 0.457592 18.5059 67.6595
CA 17.1929 14.3723 47.7694
CA -1.35646 14.8172 76.9368
CA 21.2351 18.1582 64.6984
CA 7.99949 45.3901 81.04
CA 12.4301 23.3392 29.8158
CA 22.2953 41.5546 61.7499
CA 22.9572 28.0895 74.4555
CA 21.1994 22.0708 27.314
CA 2.88135 23.2333 25.667
CA 17.6532 22.2541 52.0008
CA -2.66035 42.0375 86.2238
CA 24.6996 27.5806 59.6784
CA 26.0646 20.6732 78.0926
CA 19.9696 23.887 48.8111
CA 22.4709 41.8986 59.0472
CA 22.5115 36.0541 70.1598
CA 5.56672 34.0333 67.8557
CA 28.9606 22.136 58.018
CA -11.2437 35.1122 22.0302
CA 28.7125 19.9953 80.541
CA 7.4427 33.8718 39.5974
CA 14.6516 15.4559 42.6699
CA -5.76133 25.8861 33.5393
CA -2.81554 34.2848 25.8394
CA 10.4608 -3.74512 62.0489
CA 11.2226 17.7141 31.2775
CA -2.62099 6.56736 77.3443
CA 8.50635 43.0184 43.9244
CA 2.59419 2.57177 59.2426
CA 23.6879 -6.49345 58.3311
CA 19.1767 13.7331 57.8849
CA -4.34128 7.54144 79.4655
CA 17.3326 20.9964 46.8304
CA 18.9031 36.7543 64.6123
CA 2.78696 -3.40946 56.3133
CA 16.6791 21.7751 26.9346
CA 15.0511 21.0766 50.7428
CA -0.885338 28.8442 20.8795
CA 12.6522 30.0161 53.2137
CA 11.2734 -9.01904 65.0142
CA 17.0003 24.1524 48.68
CA 28.2212 23.9267 68.8633
CA 20.4348 7.90344 60.3853
CA 8.62777 -1.92954 57.9503
CA 10.5423 13.4059 28.8542
CA -1.31686 39.9372 81.8071
CA -9.05246 20.0655 57.4193
CA 24.4062 24.429 58.8414
CA 8.61584 32.5829 87.363
CA -9.56794 21.2145 18.4343
CA 19.6377 22.7378 52.4023
CA -1.1636 18.5045 79.8523
CA 16.4794 21.5595 40.2302
CA -3.27684 16.7164 61.5469
CA 4.75043 0.98876 68.0634
CA 2.80371 36.9804 66.0356
CA 3.08196 27.8399 87.0123
CA 23.682 28.2955 50.0158
CA 31.6298 21.0288 77.4078
CA -0.966988 40.1708 46.6801
CA 0.0972454 40.2013 73.4407
CA 21.3184 2.96549 60.3185
CA 24.7655 38.1086 53.9779
CA 10.3655 0.430781 72.2209
CA 28.3266 7.52889 35.2795
CA 18.8784 31.0197 42.123
CA 16.3692 26.7612 86.9382
CA 28.0916 36.5289 52.2225
CA 1.69085 26.781 44.7766
CA 6.55325 30.0963 64.8712
CA 18.8879 34.5676 62.7717
CA 4.70973 29.788 89.8479
CA 29.222 20.1427 77.5688
CA 31.3136 4.35238 46.5166
CA -8.22598 16.2415 66.9664
CA 13.0558 25.1013 76.3905
CA 6.32387 18.5266 33.233
CA 17.8588 26.8565 46.9924
CA 21.5608 24.6043 51.3365
CA -2.04068 31.1949 14.2857
CA 16.8724 24.9678 31.5657
CA -5.86314 41.0356 15.7668
CA 22.7549 5.60763 58.9026
CA 7.29859 29.5504 62.8307
CA 8.3758 46.123 78.1454
CA 20.3475 42.0536 64.5964
CA -3.75962 -13.2918 51.5624
CA 18.5058 37.5413 54.7526
CA 23.9423 28.5184 83.6692
CA 15.671 9.44771 52.0305
CA 32.9892 20.7351 62.0831
CA 22.9503 18.8137 44.1438
CA 16.5258 30.1124 81.2555
CA -2.05354 7.43058 80.1749
CA 3.82506 21.1368 33.1944
CA 7.51486 34.0668 86.4472
CA -2.92205 4.89662 56.3177
CA 3.33955 36.0293 37.4975
CA 19.6799 20.3227 47.6162
CA 27.0625 26.3533 43.7215
CA 17.2702 35.5345 65.5964
CA 27.1919 36.368 54.1047
CA 4.05483 28.5655 41.4418
CA 27.7308 9.93627 42.8455
CA -2.34903 19.7105 4.53529
CA -8.47924 21.8127 66.4946
CA 17.5301 30.1306 45.2297
CA 18.5862 35.0143 53.5757
CA -2.32148 4.951 67.802
CA 25.1905 1.96505 47.7408
CA 26.9638 28.6526 41.3149
CA 27.5087 21.2743 76.4815
CA 13.5638 6.2478 45.4629
CA -3.6464 18.8767 34.3447
CA 9.50965 7.54969 50.7254
CA 12.2784 -6.34418 61.1166
CA 7.14607 33.1829 59.5524
CA 5.28759 32.3277 40.791
CA 25.9369 23.6543 56.0488
CA 26.811 21.8088 54.9166
CA 5.08942 47.3806 76.6677
CA -7.76155 17.9491 63.1702
CA -11.8057 26.7957 15.6084
CA 9.64196 17.3798 42.354
CA 2.87749 15.5817 31.6175
CA -6.13963 28.4056 87.3546
CA 22.2827 -4.93562 60.4288
CA 24.6185 24.3517 43.5885
CA 29.0052 15.9394 41.1274
CA 0.340744 25.4483 29.2925
CA 21.6533 22.8607 90.0526
CA -10.9927 17.7881 21.7202
CA -4.0657 20.5734 35.2477
CA 18.9785 20.7779 49.5129
CA 0.94905 34.2441 58.8487
CA -11.2573 29.7975 25.5061
CA -1.54286 17.7298 69.1002
CA -7.15427 18.9718 46.7468
CA 27.88 12.3099 45.7639
CA -7.62314 23.0853 19.9027
CA 24.48 4.86051 33.0961
CA 22.6643 20.0387 37.9026
CA -10.9665 23.1363 57.1781
CA -7.21602 32.1387 23.6946
CA 25.5113 40.0347 60.6943
CA 11.4246 -10.2646 67.429
CA 27.9223 4.92246 71.3747
CA 23.3961 20.4063 78.1799
CA 4.68077 -10.217 54.6095
CA 34.1787 14.4288 42.6089
CA 27.4828 25.2451 81.3203
CA 22.7256 25.2981 84.3437
CA -2.37794 5.78917 59.8318
CA 19.0164 37.1536 62.8343
CA 2.6808 32.8403 63.8632
CA 10.436 29.2417 84.9463
CA 31.1112 11.4467 44.4606
CA 23.2052 2.62603 51.6843
CA 11.5649 32.0619 73.2055
CA -9.54706 30.929 14.8839
CA 25.721 23.5191 45.0169
CA -4.96683 2.19359 70.5196
CA 2.02131 22.1267 31.1075
CA 35.2071 19.7067 63.3252
CA 24.4737 20.3928 76.0368
CA 17.1544 22.8903 38.8097
CA -9.27693 19.3729 70.6656
CA 15.4248 19.5398 80.5339
CA 17.1044 6.73891 51.1622
CA 20.5001 26.9126 60.5529
CA 6.21562 34.1597 65.7766
CA 3.33964 -0.718851 57.1896
CA -7.90791 38.3177 19.9353
CA 18.8669 37.8923 45.6504
CA 27.4999 11.1518 49.2756
CA 16.2893 6.41394 48.1687
CA 7.5559 21.0796 43.198
CA 16.6859 20.792 49.2402
CA 22.0946 29.9363 82.7338
CA 25.5448 5.7847 71.587
CA 11.3247 26.0147 50.3149
CA 21.3637 37.4293 64.3588
CA 11.0125 17.1432 29.0649
CA 25.2308 27.7055 65.9494
CA 26.5684 42.8522 64.9321
CA -10.6276 29.8171 17.2681
CA 3.38386 43.1638 75.8468
CA 21.4748 21.693 54.1185
CA 22.4083 18.0314 50.0958
CA -8.00664 22.1452 34.4148
CA 30.5451 10.3763 53.5956
CA -10.0036 18.1463 66.1392
CA 33.3343 20.3983 48.5859
CA 11.2668 4.01004 54.2108
CA 25.5319 40.4152 54.2078
CA 21.9758 6.26883 65.272
CA 26.6265 9.01256 73.7786
CA 14.4161 24.4578 72.1804
CA 13.5139 29.1913 48.7268
CA 29.8893 13.0872 57.4062
CA 11.7335 19.1907 40.1412
CA -2.45928 36.2425 80.5342
CA 3.32626 8.57481 83.2416
CA -3.7496 29.9868 15.3777
CA -0.110029 11.0725 32.9174
CA 3.90894 29.6404 61.8062
CA 9.06025 18.7709 44.9666
CA 21.2295 13.4004 59.2008
CA 6.33418 46.4053 81.7398
CA 3.41022 7.64927 74.61
CA 31.2561 8.78614 40.4406
CA -11.184 21.574 29.4312
CA 31.4317 17.3951 47.7861
CA -9.18806 30.7412 47.4242
CA 33.1674 22.4588 41.2866
CA -7.90253 23.3626 16.8497
CA 19.0046 17.4198 47.6035
CA 24.071 36.5703 69.1147
CA -6.91693 6.71842 64.8146
CA 8.92407 37.1979 51.3977
CA 33.7196 17.3313 39.3391
CA 11.8996 24.4737 32.7051
CA 20.2431 36.8509 69.5614
CA 11.8239 36.1928 48.5383
CA -1.09625 2.21222 61.0824
CA 25.2355 22.6305 50.8975
CA -8.7692 20.7223 14.9977
CA -2.77381 42.6875 82.5931
CA 16.611 26.7324 39.3437
CA -4.03844 34.7358 18.4711
CA -6.67589 25.2397 31.8311
CA 9.27015 23.0654 81.0352
CA 24.024 23.3254 36.2452
CA 13.6358 21.6182 44.329
CA 10.4245 16.0948 40.6055
CA 15.4497 18.328 53.9964
CA 2.39959 21.9452 45.0096
CA -9.79723 13.6057 16.3047
CA 0.0455445 32.086 15.3093
CA 5.8118 34.4555 58.2431
CA 8.55177 -8.93087 65.5144
CA 4.13288 -11.865 57.1842
CA 1.28713 36.9918 47.8979
CA 25.3999 7.22802 35.9755
CA -0.536049 19.4744 44.3698
CA -1.54944 15.7242 67.1409
CA 22.566 23.468 50.3453
CA 6.38147 2.58388 71.0995
CA -16.6896 24.5955 22.347
CA 6.54942 44.0664 43.1668
CA 16.0956 40.8352 46.5199
CA 11.7801 15.0731 50.9696
CA -1.92377 6.35972 74.7235
CA 7.97795 34.6145 72.3242
CA 11.4931 26.5658 73.7859
CA 18.9113 21.3588 28.8336
CA 21.3685 39.6355 55.3375
CA 22.9902 5.62049 44.0123
CA -4.16579 33.8899 16.8561
CA -2.915 28.363 84.8681
CA 27.0811 3.01953 67.9482
CA 11.5296 27.0339 76.7744
CA -13.2006 27.3572 20.2559
CA -1.66778 37.6364 76.8888
CA 4.3525 37.7485 88.0349
CA -8.19721 24.8316 27.0705
CA 14.8049 41.996 48.1874
CA 19.9772 25.6353 77.3137
CA 7.09298 31.0046 66.5123
CA 22.5989 21.916 62.8261
CA -14.7385 30.8555 15.4208
CA 29.8297 25.3418 71.4899
CA 16.9749 18.8181 49.3931
CA 9.0365 15.1523 47.2099
CA 6.66006 35.2771 60.7189
CA -12.2846 29.2145 14.2682
CA 13.0786 29.6917 38.1835
CA -6.60517 30.0916 44.9065
CA 6.42699 44.1668 76.8997
CA 15.3706 9.50267 41.7075
CA 21.0798 36.6571 60.8143
CA 11.847 16.5286 49.5392
CA 0.810607 36.5572 42.6194
CA -6.67976 34.1944 22.7292
CA 6.74408 36.1558 51.846
CA -3.09341 11.296 58.1174
CA 25.9109 25.3377 84.4688
CA 2.73037 7.85927 70.4869
CA 0.342825 28.3767 16.7884
CA 6.12168 40.2589 85.7574
CA 15.0355 16.3585 47.7276
CA 33.0661 6.93328 43.8309
CA -5.28364 18.793 19.1352
CA -0.500611 7.57174 81.2347
CA -8.84693 34.0933 17.9069
CA 19.5885 27.7677 83.2803
CA -3.65224 20.7812 47.0493
CA -4.70158 9.46219 66.545
CA 16.9116 28.4338 42.7979
CA 8.40651 31.3412 51.4522
CA 11.4418 37.2139 72.4773
CA 1.51593 19.0825 50.3215
CA -0.317839 9.92491 77.5586
CA 21.8446 8.67344 64.0568
CA 15.0081 19.73 30.5398
CA 25.518 26.7711 64.4262
CA 20.8782 -3.98626 54.0303
CA 21.318 -4.84657 65.7853
CA 23.0407 17.5687 58.227
CA 17.433 26.9501 31.6156
CA 29.3714 8.67313 40.4853
CA 0.456432 34.2002 82.8752
CA 17.0752 15.3004 44.1986
CA 8.02745 49.1137 80.3424
CA 9.0526 33.8176 49.5533
CA -5.23635 23.1867 13.0374
CA 16.4483 -5.57464 64.8406
CA 21.1655 7.37849 62.2101
CA -6.17783 34.5214 81.2696
CA 29.7004 21.1227 41.6855
CA 14.6556 41.3875 56.7146
CA 24.6987 -2.35376 57.2887
CA 24.8109 1.22077 59.1158
CA 5.48555 18.6483 47.4028
CA 4.12302 -4.12299 54.8625
CA -7.08442 23.8362 10.8967
CA 19.7596 22.7727 40.8519
CA -9.45788 7.39093 58.294
CA -1.27785 5.73225 80.1837
CA -6.27034 32.8958 14.824
CA -3.20783 19.5402 61.7571
CA 24.2039 38.7917 51.7441
CA 1.01705 36.0814 45.9001
CA -3.45347 4.5354 78.8068
CA 15.2715 20.9594 29.1561
CA 19.415 41.8057 70.3507
CA 10.3386 13.7832 42.0457
CA 16.2489 17.3358 43.5192
CA 4.65662 -12.6239 55.0143
CA 18.8854 18.2947 62.1316
CA -1.36291 23.5258 23.9668
CA 7.34067 26.7714 32.1438
CA -9.64512 18.0545 60.2555
CA -3.81761 19.9506 32.1703
CA 15.1721 8.43345 43.9644
CA 5.55048 28.542 88.1157
CA -2.1087 30.9799 19.4997
CA -0.666561 7.41977 55.9436
CA 16.1042 4.09176 54.1157
CA -0.495465 12.2157 77.7505
CA 17.614 21.5563 76.4984
CA 7.48479 30.746 88.7062
CA 22.9128 2.43569 65.4623
CA -1.57353 29.3834 14.9243
CA 17.6202 32.344 39.259
CA 26.3909 20.2272 81.8831
CA -11.3485 5.45298 56.3836
CA 23.5919 17.2306 76.5154
CA -4.23799 35.0497 44.9147
CA -4.39195 13.5907 59.2749
CA 17.3989 5.07817 52.8728
CA -3.81919 11.6251 60.6239
CA -9.03555 21.819 61.7628
CA 19.2149 14.5674 60.4376
CA 1.48763 48.1633 73.5069
CA 22.0142 34.5004 47.4034
CA -5.25578 26.4876 16.3166
CA -1.34016 10.6026 67.7889
CA -4.17649 10.0623 59.6941
CA 1.53497 31.0491 87.0297
CA 18.1207 20.123 42.9309
CA -0.456282 -13.4379 53.4042
CA 10.3111 37.0356 44.465
CA 16.7162 23.962 36.9111
CA 26.2226 29.5081 81.856
CA 19.7234 30.2453 75.9378
CA 18.6941 24.6432 84.1457
CA 7.10099 47.2177 79.4807
CA 20.4497 38.6844 57.5162
CA 24.2936 9.39512 61.7439
CA 19.4019 25.655 48.0496
CA -8.50802 27.9523 18.3269
CA 25.7073 16.4442 75.8249
CA 4.46686 34.7638 35.9641
CA 32.0918 24.3443 64.9964
CA 16.6198 32.4336 54.0956
CA 11.9019 25.6324 86.4303
CA 26.47 40.3522 62.5185
CA -13.5738 30.3623 27.4799
CA 26.1402 20.982 52.5915
CA 4.92863 -3.84663 66.6517
CA 25.1509 28.5766 68.6692
CA 13.5739 -8.2874 61.4448
CA -5.38998 18.5562 65.0221
CA 12.6897 13.7325 52.0011
CA 5.40226 22.2953 34.6891
CA 14.0305 -2.34476 59.6119
CA 8.99931 38.7987 69.6848
CA -4.71501 40.0052 20.8924
CA 20.8476 25.8362 58.4713
CA 5.44621 15.9889 33.8617
CA 13.7951 33.2132 64.8018
CA 7.46131 33.7087 89.8777
CA 25.4368 26.5853 81.8485
CA 20.6808 30.5654 47.7593
CA 3.26189 40.4073 40.5066
CA 30.4892 20.19 51.9109
CA 2.59588 24.2662 28.8001
CA 3.09435 -4.86788 65.7518
CA -0.0108812 23.4915 42.8962
CA 11.0621 8.0142 51.6149
