489

CA 29.7003 43.4519 51.3126
CA 24.698 18.8815 55.8521
CA 34.6545 29.761 70.9263
CA 30.3133 16.0453 58.0342
CA 0.581658 16.207 71.6487
CA -8.55753 9.52435 65.3366
CA 6.37692 40.9597 36.7439
CA 1.04681 2.51312 64.2833
CA 15.0476 41.2541 51.506
CA 8.07703 31.5382 72.6425
CA 26.8161 12.5388 53.1716
CA 7.07434 18.0951 53.865
CA -5.55797 -12.6817 49.3871
CA -3.8245 -10.3431 48.9749
CA -5.55636 24.576 17.7053
CA 14.8728 34.0071 71.0934
CA -1.42336 -3.53085 77.8741
CA 18.1682 24.3895 87.1246
CA 12.7949 -12.4338 62.972
CA -10.1421 22.7435 60.2679
CA 20.0415 21.6417 45.2816
CA 4.99318 49.7718 77.5192
CA 3.01584 17.2463 56.5703
CA -1.10389 21.2099 31.1909
CA 8.46426 14.4304 31.9608
CA 26.9466 46.0854 50.1156
CA 13.1841 -5.96982 61.1223
CA -2.25561 -2.17989 73.4456
CA 23.2277 8.9232 74.3331
CA 23.472 5.53138 73.478
CA 26.5637 11.3224 43.6027
CA 4.85957 -2.71735 68.2744
CA 2.41989 33.928 50.5754
CA -6.95785 33.3309 69.3117
CA 23.8412 7.83357 46.6394
CA 15.1691 22.774 58.6348
CA -12.5382 28.4149 32.4884
CA -7.14921 7.10178 55.425
CA -5.7838 38.1866 45.3386
CA -0.709883 17.3183 35.323
CA -5.26195 28.4456 33.7309
CA -1.85738 19.7991 48.0251
CA 22.0789 19.546 42.1083
CA -0.0517187 -8.58664 51.6176
CA 6.49711 31.2385 56.1925
CA 15.8211 6.87892 55.9973
CA -0.106018 22.1215 11.7459
CA 15.0059 3.7572 48.1026
CA 24.3451 9.70911 47.48
CA -9.2619 -8.84463 58.8962
CA 8.60572 21.7221 55.1023
CA 11.5799 34.3739 69.0269
CA 26.9164 14.3548 57.7515
CA 17.6117 21.0388 67.2239
CA 21.1152 28.0271 85.4735
CA 13.6567 23.3827 47.6771
CA -3.5496 36.8786 25.7228
CA -2.0158 33.8139 85.2172
CA 3.12045 -3.45567 63.6694
CA 21.565 19.1329 48.5577
CA 9.39839 11.5569 41.6059
CA -4.1362 25.5002 92.3304
CA 9.4026 34.5244 54.1829
CA 26.9444 17.3991 55.7567
CA -15.7297 28.326 42.2856
CA 25.386 24.6701 60.6575
CA -7.53543 28.046 27.5455
CA 16.7638 31.8554 69.3158
CA -3.36185 37.2875 72.7424
CA 13.566 21.7244 48.7457
CA 18.6855 15.318 56.7853
CA 16.2701 24.0973 68.4018
CA 29.0811 10.7149 55.2708
CA -4.13368 23.585 46.4839
CA 25.6927 3.61155 45.9256
CA 17.7216 -5.72318 52.8407
CA -5.2461 26.6736 88.4583
CA -1.17396 35.0287 44.4272
CA 1.17346 15.8076 46.6581
CA -5.84886 -7.92181 58.182
CA -1.10666 21.9653 16.7297
CA 17.0859 31.4752 57.083
CA 17.8285 22.6206 61.3282
CA -0.810273 25.9398 15.9326
CA 10.942 38.5693 52.2688
CA 18.4397 29.4774 49.8069
CA 1.3693 24.1576 46.4072
CA 0.878741 23.4553 14.5884
CA -14.6781 27.9764 36.9476
CA 24.6996 27.5806 59.6784
CA 20.0298 24.6565 75.23
CA 15.9552 6.18682 54.0312
CA 7.56515 32.6257 53.0967
CA 28.8756 18.6183 51.0731
CA -1.95542 37.6945 81.5477
CA 20.0066 30.5702 60.2418
CA 30.9107 40.6811 50.1337
CA 22.3573 29.942 55.9206
CA 21.7092 22.4634 40.8976
CA 14.6516 15.4559 42.6699
CA 8.58492 34.4969 52.5025
CA 2.6061 13.3111 50.4067
CA 30.5767 1.89526 61.7811
CA 14.9866 30.0402 43.4975
CA 25.2684 22.0264 80.0768
CA 3.43154 28.5451 87.3076
CA 0.813364 29.4677 89.6535
CA -7.90826 -11.5458 51.7618
CA 2.27838 28.7202 85.1757
CA 17.1247 21.2133 58.8192
CA 6.23725 -9.85685 53.0851
CA 27.2247 23.4857 36.8438
CA 2.78696 -3.40946 56.3133
CA -5.84151 39.4037 49.3592
CA 15.0511 21.0766 50.7428
CA -4.28265 11.2835 58.7536
CA -9.69726 11.9783 68.1863
CA -10.373 32.8908 18.4106
CA 22.1598 9.54674 48.4294
CA -5.97486 12.4921 69.1334
CA 3.22656 37.7606 38.0483
CA -17.741 27.8889 41.8447
CA 7.58123 34.4818 69.9798
CA -1.31686 39.9372 81.8071
CA -5.59423 8.53794 69.3818
CA 24.4062 24.429 58.8414
CA 11.6111 28.5185 49.9099
CA 21.6218 25.7597 39.0316
CA 12.436 -6.3464 63.3566
CA 24.0344 22.9129 57.8915
CA 5.40673 19.458 43.2878
CA 23.0439 4.14533 67.7564
CA 20.8503 7.14314 47.919
CA 17.5309 22.1567 26.8493
CA -3.98386 24.3397 88.9262
CA 23.682 28.2955 50.0158
CA 31.6298 21.0288 77.4078
CA 12.4614 23.0042 69.0819
CA 0.0972454 40.2013 73.4407
CA 2.4071 25.592 42.2075
CA 12.5387 -7.28144 66.4294
CA 10.3655 0.430781 72.2209
CA 28.3266 7.52889 35.2795
CA 18.4261 26.1421 85.8276
CA 18.4303 21.5805 74.804
CA 7.58082 32.5477 66.6263
CA 20.0337 24.4301 62.7744
CA 6.55325 30.0963 64.8712
CA 13.0928 10.2677 49.5423
CA -2.10609 1.31883 56.9606
CA 4.79016 29.4448 88.4749
CA 31.3136 4.35238 46.5166
CA 11.7105 25.5182 82.9246
CA 29.3073 24.6091 49.7646
CA 22.9651 14.6739 75.0023
CA 26.5125 17.3114 59.7542
CA 33.6346 26.2788 66.6556
CA 22.152 35.5153 61.4282
CA 0.0183079 32.426 54.4043
CA 23.8635 32.2694 70.7054
CA 18.1424 20.4163 71.527
CA 8.99877 16.6116 38.9829
CA 13.5721 37.9989 46.3884
CA 12.8594 5.12454 48.4528
CA 9.22645 24.7493 44.5207
CA 10.9849 8.71645 46.625
CA 3.65737 18.8769 31.1509
CA -3.62134 6.03129 58.8709
CA 23.149 24.1876 62.099
CA 0.691989 22.2976 44.1974
CA 9.57733 41.8547 34.0932
CA 27.5849 19.8535 58.2006
CA -7.71994 19.6764 52.768
CA 7.51486 34.0668 86.4472
CA -3.1239 -7.7651 46.2607
CA 16.6165 25.9076 71.99
CA 18.9374 19.7852 64.4993
CA 20.64 16.1139 49.8031
CA 6.08611 15.1766 44.7969
CA 17.1628 10.0616 53.8755
CA 16.3531 32.2537 61.173
CA 17.5519 37.54 51.6013
CA 0.31289 44.2064 78.51
CA 2.33038 20.9319 50.0989
CA 17.5301 30.1306 45.2297
CA -3.12755 -4.3579 77.8437
CA 28.4834 0.892031 66.1113
CA 26.2057 26.5549 59.5057
CA 27.5952 43.7467 49.8239
CA -1.45599 24.6067 43.2715
CA 13.5638 6.2478 45.4629
CA -7.72016 -10.6624 55.8484
CA 16.4809 29.3489 63.8381
CA -9.21965 14.3624 64.2137
CA -15.6892 26.2355 37.0436
CA 9.79573 44.0824 37.4743
CA 29.9868 30.2494 73.8791
CA 17.5835 29.4338 36.6374
CA 20.0708 45.1158 57.1474
CA -7.76155 17.9491 63.1702
CA 20.6381 30.1782 39.9288
CA 25.1504 27.6478 55.8259
CA 2.87749 15.5817 31.6175
CA -6.91759 30.6738 20.281
CA 22.2827 -4.93562 60.4288
CA 6.46238 2.28005 70.0857
CA 24.0539 13.7074 53.7864
CA 15.2655 23.6314 79.2013
CA 11.7137 21.4914 71.7091
CA 3.4302 22.3195 31.9285
CA 23.1345 31.6054 55.9396
CA 17.873 19.9089 61.868
CA 21.7425 38.5191 58.4458
CA -11.2573 29.7975 25.5061
CA -1.54286 17.7298 69.1002
CA 29.219 15.1944 83.0004
CA 16.1977 24.0345 59.8766
CA 12.6569 9.78647 47.5294
CA 17.1514 15.7602 39.109
CA 0.204291 -4.04188 70.6795
CA -2.98722 25.3383 20.7041
CA 14.9531 25.4591 84.8585
CA 21.6726 5.8384 69.0275
CA 4.5039 16.7852 44.1023
CA 15.1897 28.725 74.6505
CA 31.5215 23.7978 61.9382
CA -0.257403 31.6938 78.7585
CA 3.71334 23.3267 47.486
CA 14.6395 34.8319 53.6623
CA 8.10042 23.6514 42.6345
CA -22.5829 30.485 31.0229
CA 1.14183 -6.43784 54.5643
CA 19.9233 41.7075 56.5272
CA 10.436 29.2417 84.9463
CA 31.1112 11.4467 44.4606
CA 23.0125 30.349 46.54
CA 22.4327 24.5038 87.7086
CA -9.54706 30.929 14.8839
CA 24.3164 0.540397 67.7656
CA 1.03218 39.7005 74.9118
CA 28.4621 17.3235 58.6898
CA 14.4963 37.0911 49.0519
CA -4.01699 21.4468 49.2633
CA 6.15945 31.3536 69.3683
CA -9.27693 19.3729 70.6656
CA 3.48609 36.163 64.1815
CA 12.5127 20.083 45.4732
CA 6.70764 43.2914 41.0629
CA 6.21562 34.1597 65.7766
CA 2.05034 23.7446 41.9204
CA 21.7306 6.93615 50.2517
CA 0.960003 34.6458 44.4191
CA 27.4999 11.1518 49.2756
CA -9.02616 34.2319 45.2193
CA 28.1338 24.1153 61.8373
CA -10.8905 27.2695 31.0333
CA -8.84521 27.4019 24.012
CA 25.5448 5.7847 71.587
CA 11.3247 26.0147 50.3149
CA -13.3623 21.1883 57.22
CA -8.58465 -12.0934 46.4911
CA 26.5971 29.1664 72.4513
CA 15.4233 37.1708 51.9101
CA 25.4317 24.8259 77.151
CA 3.38386 43.1638 75.8468
CA 20.8587 9.23078 63.8469
CA 19.6366 30.1873 36.5497
CA 3.55757 36.6097 45.2198
CA 2.25057 18.293 54.4322
CA -10.0036 18.1463 66.1392
CA 25.7455 31.4796 51.9982
CA 18.2996 37.0987 49.8249
CA 7.31624 17.4354 39.3727
CA 21.9758 6.26883 65.272
CA 5.1639 6.19029 61.5619
CA 12.4319 38.3792 55.2887
CA 30.7073 11.0865 34.9477
CA -4.26321 38.5103 19.6807
CA 25.467 22.5027 60.1333
CA 13.3974 21.6548 57.8474
CA 20.329 10.423 61.0631
CA -3.7496 29.9868 15.3777
CA 23.0925 22.512 78.091
CA 3.90894 29.6404 61.8062
CA 14.1172 29.7789 35.1546
CA 26.8182 24.2661 65.382
CA 2.76532 3.42073 59.2797
CA 3.41022 7.64927 74.61
CA 33.2744 27.1769 64.4228
CA 14.9478 5.98358 50.4151
CA -10.7508 18.9374 58.7606
CA -10.8062 22.3251 52.2137
CA 11.4653 5.76983 45.0824
CA 3.06927 15.7382 65.9832
CA 19.0046 17.4198 47.6035
CA 24.7547 11.317 72.0534
CA -6.91693 6.71842 64.8146
CA 8.54746 30.6922 80.8088
CA 2.13664 26.6762 86.3916
CA 11.8996 24.4737 32.7051
CA 17.1888 13.8381 60.2235
CA 19.3678 27.9177 64.852
CA 26.798 8.67147 44.0197
CA 25.2355 22.6305 50.8975
CA 18.8626 10.557 62.3468
CA 26.6245 20.1322 54.0432
CA -0.988822 21.7083 36.2718
CA -4.03844 34.7358 18.4711
CA -6.67589 25.2397 31.8311
CA -12.9298 30.4181 26.6781
CA 7.47398 20.3747 42.039
CA 3.18063 46.5213 43.4419
CA 16.8378 29.8332 42.6287
CA 14.7285 -7.25967 64.1822
CA -0.0654017 38.0412 71.3877
CA 16.848 32.9175 65.2745
CA 0.0455445 32.086 15.3093
CA 32.6353 13.9427 47.5489
CA 8.55177 -8.93087 65.5144
CA 14.3298 26.2588 47.8032
CA 15.2499 26.3575 27.2734
CA 28.1864 14.0585 55.6979
CA 7.50976 14.3258 33.7653
CA 5.33617 -5.909 69.0299
CA -4.28375 21.3172 34.5873
CA 14.4985 20.0867 40.9551
CA 23.7488 27.5264 89.2097
CA -3.6709 33.2032 46.4451
CA 6.24523 11.9406 45.7166
CA 8.45434 30.6533 84.9707
CA -1.92377 6.35972 74.7235
CA 5.37 18.5954 38.6453
CA 18.6091 28.4667 48.2782
CA 18.9113 21.3588 28.8336
CA 21.3685 39.6355 55.3375
CA 32.9382 9.67313 46.1361
CA 19.4769 25.3464 53.2291
CA -2.41506 29.1912 84.9743
CA -4.4611 24.4893 51.5514
CA 27.376 22.4941 80.2103
CA 22.6111 18.0786 73.0591
CA 19.9461 26.1167 59.7134
CA 4.3525 37.7485 88.0349
CA 17.5804 19.1243 35.5074
CA 23.8707 21.8135 74.9963
CA 14.6899 43.2698 52.005
CA 20.544 27.9538 53.1291
CA -1.59057 -3.23852 53.6909
CA 21.5357 19.3335 74.6942
CA 14.6859 5.28514 52.7194
CA 0.882393 32.7676 84.3475
CA 14.6713 30.2927 78.0635
CA 17.0001 22.0114 46.3923
CA -3.60527 34.3642 76.397
CA 26.8978 18.6851 82.2979
CA -6.60517 30.0916 44.9065
CA -6.4903 34.1223 15.6281
CA 4.1515 -17.456 54.141
CA -10.9756 -12.2753 48.7409
CA -2.83146 25.7765 13.3882
CA -3.22129 18.752 27.5962
CA -6.67976 34.1944 22.7292
CA 21.9244 14.9564 73.2942
CA -1.03857 35.2978 79.4703
CA -7.45441 -16.3511 46.7554
CA 2.73037 7.85927 70.4869
CA 0.342825 28.3767 16.7884
CA 16.346 -4.59333 64.3202
CA 9.56596 40.0885 72.3977
CA -18.7411 31.0614 30.6473
CA 23.528 29.1431 60.7714
CA -0.429589 19.5697 16.533
CA -8.84693 34.0933 17.9069
CA -8.57407 26.2003 32.9378
CA -11.1716 -7.22799 48.7802
CA -4.70158 9.46219 66.545
CA 9.13278 -10.3272 52.9583
CA 26.6978 33.0364 56.2112
CA 11.4418 37.2139 72.4773
CA 5.57178 47.9768 74.7117
CA 19.5007 20.927 76.4387
CA 19.7104 38.5083 49.6429
CA 15.0081 19.73 30.5398
CA 25.518 26.7711 64.4262
CA 20.8782 -3.98626 54.0303
CA 16.0686 18.9196 48.7202
CA -1.89433 34.2061 27.8492
CA 17.3032 39.2404 45.7733
CA 29.3714 8.67313 40.4853
CA 15.4068 34.0231 68.6257
CA 17.0815 15.6436 58.0906
CA 2.10948 22.2446 37.3369
CA 17.2788 1.72299 57.8241
CA 17.9149 19.9196 52.428
CA 26.173 -0.386016 44.2817
CA 5.54361 28.9081 31.5389
CA -5.65244 20.2984 47.8317
CA 29.7004 21.1227 41.6855
CA 25.3482 23.0403 82.6815
CA 24.6987 -2.35376 57.2887
CA -4.16417 16.2511 68.1276
CA 25.5168 12.354 73.764
CA 5.58927 9.80113 53.3837
CA -7.08442 23.8362 10.8967
CA 20.3774 23.4701 65.0062
CA 30.583 20.891 62.5035
CA -1.27785 5.73225 80.1837
CA 4.93587 24.1945 35.5648
CA 23.7515 30.1284 67.7246
CA -8.05695 32.8574 22.2482
CA 1.01705 36.0814 45.9001
CA 7.26245 15.087 42.8338
CA 2.3996 0.866337 69.1774
CA 13.8583 26.604 82.4436
CA 14.6284 10.3477 64.0239
CA 24.3354 7.97526 70.0589
CA 4.65662 -12.6239 55.0143
CA 13.0823 39.0429 68.0488
CA 5.6575 40.1989 44.8557
CA 7.34067 26.7714 32.1438
CA 14.826 27.8449 45.5107
CA -3.81761 19.9506 32.1703
CA 23.2801 37.4958 49.9276
CA 11.6231 47.4313 52.3018
CA 34.0904 26.2102 61.8547
CA 11.8571 37.507 45.4506
CA 16.1042 4.09176 54.1157
CA 24.598 21.2986 37.7292
CA -5.2748 2.07622 59.0432
CA 14.7311 17.3352 78.9429
CA 16.0904 25.6697 34.6711
CA 6.51028 32.8956 64.1577
CA 4.17076 17.6325 51.6721
CA 21.6024 -5.7476 53.4401
CA -2.12105 18.4788 33.3534
CA 5.92189 0.169939 75.41
CA -4.23799 35.0497 44.9147
CA -4.39195 13.5907 59.2749
CA 16.831 22.1457 74.0634
CA 9.03299 29.0837 68.6729
CA -4.75746 27.1409 31.4428
CA 25.8763 18.5696 39.4683
CA 25.7997 27.2929 57.9089
CA -2.05631 10.2492 81.9948
CA 19.6229 17.77 45.8261
CA -1.34016 10.6026 67.7889
CA 27.2128 4.69004 44.3623
CA 1.53497 31.0491 87.0297
CA -8.22322 18.5881 54.2983
CA -0.456282 -13.4379 53.4042
CA 10.3111 37.0356 44.465
CA 16.7162 23.962 36.9111
CA -2.47167 30.6031 18.2663
CA -3.88031 33.5508 15.4298
CA 18.6941 24.6432 84.1457
CA 15.4141 13.1976 61.0649
CA 3.55427 26.1542 88.5694
CA 10.223 31.2212 64.5502
CA 3.79159 17.1415 42.4842
CA -8.50802 27.9523 18.3269
CA 21.1744 -3.52969 61.5938
CA 23.3245 4.37393 69.9544
CA 18.8709 27.3142 40.8704
CA -5.92623 27.8099 18.755
CA 11.9019 25.6324 86.4303
CA 28.9298 1.35161 43.0018
CA 22.1338 22.4604 60.9641
CA 26.0983 38.0127 50.5955
CA 23.2447 13.1206 50.1844
CA -2.86821 -8.85196 50.0435
CA -15.8167 28.451 31.8823
CA -0.0386237 35.1585 83.5979
CA 9.43534 38.4502 35.5468
CA 19.1042 16.5162 59.4154
CA -9.57591 -14.1539 48.0544
CA 3.52999 50.9442 77.0266
CA -10.4664 30.6114 19.3149
CA 16.0636 28.8905 39.932
CA 28.5419 18.8094 48.3419
CA 21.16 22.0872 88.2631
CA -6.94128 34.8276 71.3541
CA 14.2062 21.9545 46.3738
CA -2.61589 39.4434 19.6252
CA 0.504458 17.0224 65.4934
CA -0.690921 6.42359 63.6588
CA 14.9937 20.3723 77.8834
CA 29.5194 25.3271 61.783
CA 21.8751 25.4205 64.596
CA -7.73204 35.7172 18.1562
