489

CA -6.82887 23.4375 66.9234
CA 23.5021 9.63528 50.2886
CA 13.7501 21.2677 66.7255
CA 1.11122 15.9949 52.913
CA -0.380929 17.9852 28.0666
CA 14.0214 22.944 65.5664
CA 1.60626 32.0365 28.4911
CA 8.46145 0.866931 72.1437
CA 23.1271 25.3403 35.8073
CA 19.7014 37.4138 51.0069
CA -9.4962 14.619 28.2263
CA 11.8181 40.2859 72.8229
CA 9.79201 38.7272 50.0247
CA -3.8245 -10.3431 48.9749
CA -5.55636 24.576 17.7053
CA 26.4951 25.8113 59.1149
CA 9.32369 47.5346 79.276
CA 21.7068 33.1518 70.1369
CA -5.37509 7.59785 65.5817
CA -2.38481 15.3003 63.7256
CA 22.2576 36.0677 50.8361
CA 22.7002 14.6811 74.9917
CA 25.4161 26.0478 68.0072
CA -1.10389 21.2099 31.1909
CA 21.3352 9.68634 37.6127
CA 26.9466 46.0854 50.1156
CA 10.7734 37.4421 46.9254
CA 16.9492 25.8068 59.836
CA 11.4229 26.4328 33.8038
CA 5.17134 18.6994 58.891
CA 26.5637 11.3224 43.6027
CA 2.64003 29.5221 82.6908
CA -0.392215 -12.0851 55.2004
CA -2.35036 -13.9365 55.6622
CA -1.42219 -15.2956 54.6425
CA 8.52524 30.8169 63.1208
CA -4.23224 21.8308 66.5899
CA -0.721602 24.0799 49.0994
CA 14.2743 32.0975 35.4174
CA 18.1617 26.1746 41.7284
CA -0.0468326 32.0258 81.2732
CA 25.4141 2.35468 66.3304
CA -12.5245 -5.64788 54.8074
CA -0.0517187 -8.58664 51.6176
CA 20.0286 20.2688 62.6948
CA 27.0595 22.1885 58.2565
CA 24.1501 6.00792 36.1217
CA -14.1633 36.9935 18.4703
CA 18.6138 11.9364 50.7578
CA -10.6624 13.3996 65.1816
CA 8.60572 21.7221 55.1023
CA 1.28254 37.092 84.5881
CA -5.2906 19.5602 64.8054
CA -1.16022 7.80705 67.8947
CA 21.1152 28.0271 85.4735
CA 23.3474 0.350062 53.9253
CA 18.8757 17.2271 51.9531
CA -2.0158 33.8139 85.2172
CA -4.5887 38.1934 16.4467
CA 19.3746 27.0599 83.8624
CA 24.0872 32.1058 70.215
CA -4.31397 21.8444 38.9594
CA 17.4905 20.6497 58.4736
CA 22.1944 16.4975 83.0857
CA -15.7297 28.326 42.2856
CA 31.3739 1.18011 57.2448
CA 17.7639 28.8005 55.5642
CA 16.5204 6.02155 54.4825
CA -3.36185 37.2875 72.7424
CA -6.00784 26.0949 23.6335
CA 18.6855 15.318 56.7853
CA 21.01 24.141 34.6236
CA -7.93454 12.8014 68.4188
CA -4.13368 23.585 46.4839
CA 12.1008 35.0327 67.2833
CA 13.4875 23.6332 50.7438
CA -5.68023 42.2007 74.0008
CA 8.37675 24.7045 31.5557
CA 17.7473 25.1587 74.7038
CA -3.88843 34.3445 24.8342
CA 0.865179 23.0098 18.8824
CA 5.20705 10.4935 56.2469
CA 17.8285 22.6206 61.3282
CA 3.42945 9.65772 59.6556
CA 14.8013 33.6743 55.5016
CA 1.3753 34.5073 75.5262
CA -12.0193 25.6261 29.1849
CA 14.2293 24.598 29.4796
CA -10.1627 31.3188 14.2959
CA 7.23133 18.21 56.733
CA 20.0298 24.6565 75.23
CA 1.40355 38.8747 86.6436
CA 9.05102 35.4056 61.5553
CA 25.0553 44.7351 48.1617
CA -1.40254 30.3806 84.5546
CA -0.188612 28.7603 76.6786
CA 26.6303 22.4629 66.3352
CA 22.3573 29.942 55.9206
CA -3.04321 26.0556 53.5651
CA 11.58 21.4328 25.2344
CA -4.76156 35.6453 91.401
CA 25.3062 14.304 82.5781
CA 30.5767 1.89526 61.7811
CA 0.0414825 18.7179 16.8922
CA 3.33664 43.2768 42.509
CA 13.2093 21.2329 72.7903
CA 0.289417 24.2692 43.8478
CA -7.90826 -11.5458 51.7618
CA -4.37662 13.8627 58.8591
CA -12.6256 19.9236 69.9766
CA 24.7928 27.3511 45.062
CA -4.1104 -11.6867 50.1907
CA 22.329 23.1964 75.4282
CA 12.1004 25.785 63.5664
CA -17.5143 32.6574 31.611
CA -4.28265 11.2835 58.7536
CA -0.551744 20.7565 34.0507
CA -10.373 32.8908 18.4106
CA 24.4336 10.0275 45.0178
CA -7.16523 18.8145 69.7398
CA -10.9753 11.2771 72.2493
CA 19.0317 25.2466 43.5785
CA 22.1155 22.565 61.1469
CA -8.11805 25.7969 26.3681
CA 11.3693 36.613 48.53
CA 9.32148 36.8884 55.9788
CA 4.79589 5.75202 71.7742
CA 17.4078 18.4266 36.3268
CA 19.4183 28.4819 84.9738
CA 24.0344 22.9129 57.8915
CA 5.40673 19.458 43.2878
CA 2.8494 8.27983 63.6615
CA 12.8388 18.0478 76.8032
CA 12.0296 32.2239 56.2582
CA 32.1944 29.8594 48.3029
CA 10.696 29.3042 42.9123
CA 17.1137 21.0107 53.5061
CA 21.9975 29.3486 53.005
CA 2.39643 20.3174 15.6944
CA 2.4071 25.592 42.2075
CA -11.5024 32.5058 16.9873
CA 7.94633 -2.10534 71.7872
CA -6.08512 17.319 54.283
CA 18.4261 26.1421 85.8276
CA 18.4303 21.5805 74.804
CA -0.124291 18.0619 37.898
CA 20.0337 24.4301 62.7744
CA 16.5284 25.1883 76.9122
CA 26.2858 18.3062 42.2127
CA -2.10609 1.31883 56.9606
CA 4.79016 29.4448 88.4749
CA 22.1265 12.5516 78.4579
CA -5.66871 40.3602 75.3251
CA 8.90486 20.8113 36.4072
CA -9.99733 27.7015 29.7241
CA 26.5125 17.3114 59.7542
CA 21.5559 0.556648 55.2959
CA 16.1461 28.5832 44.9673
CA -9.85609 19.4124 27.1027
CA 26.6436 13.5149 76.8878
CA 25.8708 2.49695 46.0542
CA -5.09506 39.8925 14.1804
CA 22.4669 18.8128 79.2308
CA 5.62529 22.8165 33.3712
CA 31.8705 27.8394 65.4334
CA 32.5611 25.8182 77.0314
CA 7.0256 48.9362 77.4314
CA 4.26053 39.1133 74.153
CA -9.2917 -8.65654 54.1274
CA 25.4999 40.2181 49.8042
CA 17.6172 1.78514 52.3404
CA 24.4354 18.4906 35.9781
CA 2.93717 19.9537 46.546
CA 7.51486 34.0668 86.4472
CA 16.222 34.9804 58.1516
CA 10.376 15.5106 34.5561
CA -6.98789 8.23469 60.4051
CA 20.64 16.1139 49.8031
CA -11.218 26.9887 28.1675
CA 14.1652 19.3843 77.7255
CA 16.3531 32.2537 61.173
CA 27.9522 8.2873 38.7651
CA -12.4031 20.2995 51.2228
CA 21.4365 29.0512 83.5171
CA 12.736 32.1911 70.5312
CA 5.19977 26.0429 84.0724
CA 28.4834 0.892031 66.1113
CA 18.3209 15.7364 82.6405
CA 13.1739 37.2534 51.9514
CA 23.1551 6.12101 67.7627
CA 13.5638 6.2478 45.4629
CA 13.8783 25.5561 74.8944
CA 0.579176 22.0628 15.086
CA -9.21965 14.3624 64.2137
CA -15.6892 26.2355 37.0436
CA 16.2384 3.86296 51.2098
CA -2.62992 22.9019 38.9519
CA 8.12228 26.631 62.7357
CA 20.0708 45.1158 57.1474
CA 15.4152 24.2406 78.949
CA 14.3155 17.7019 33.1517
CA 8.11946 18.3808 35.9295
CA -12.2143 35.0953 18.9964
CA 10.7468 40.0937 39.8004
CA 9.83999 11.6536 40.5208
CA 6.46238 2.28005 70.0857
CA -13.5043 33.4491 18.6687
CA 27.4457 22.7203 78.0146
CA 23.9255 10.6449 38.3859
CA 30.0377 5.67722 37.8874
CA 2.26358 32.0525 62.4209
CA 17.873 19.9089 61.868
CA 16.1063 24.881 44.9045
CA 16.4281 29.235 59.2107
CA 16.5241 38.2329 47.3937
CA 21.5025 12.4492 33.7966
CA 34.3483 0.343178 58.8955
CA 15.3258 16.7785 79.0243
CA 18.644 20.6679 85.8575
CA 0.204291 -4.04188 70.6795
CA 20.8916 5.75553 63.4612
CA 8.91118 39.127 72.7798
CA 0.123582 39.9936 46.7606
CA 0.301982 41.8606 47.0039
CA -2.47303 35.6787 82.201
CA -12.5373 32.9771 23.053
CA 16.5883 31.689 46.2044
CA 23.8666 36.8159 56.0437
CA 14.6395 34.8319 53.6623
CA 18.0505 1.82715 54.8469
CA 11.4305 20.42 35.3064
CA 1.14183 -6.43784 54.5643
CA 15.6292 37.6252 69.4622
CA -3.65039 37.7324 91.4406
CA -5.45176 22.5419 32.282
CA 7.67781 34.6115 43.6108
CA 8.76445 25.8752 52.2746
CA 13.199 30.8286 43.4393
CA -4.41622 9.05966 58.4746
CA 27.4872 4.78909 38.8642
CA 17.8342 18.8793 60.3762
CA 1.53128 36.3437 60.8961
CA 5.17414 8.4573 63.7164
CA 21.3699 24.661 64.7227
CA -9.27693 19.3729 70.6656
CA 19.8028 28.831 36.2184
CA 13.6258 34.5113 51.4218
CA -6.77605 -7.3047 51.1188
CA -9.81017 20.2901 63.7681
CA 14.8291 19.5479 83.4045
CA 7.26789 17.1299 34.7899
CA 0.960003 34.6458 44.4191
CA 31.9514 28.5394 62.5538
CA -9.02616 34.2319 45.2193
CA 27.4708 30.495 48.5558
CA 22.6305 22.2522 86.9832
CA 21.9124 8.85815 43.9574
CA -0.155573 32.6215 78.4662
CA 11.3437 30.9383 62.2165
CA 18.4865 8.34809 44.3668
CA -7.29611 -8.7674 56.3694
CA 26.5971 29.1664 72.4513
CA 27.9954 6.00707 36.9743
CA 7.74998 22.8356 35.2739
CA 3.38386 43.1638 75.8468
CA 20.8587 9.23078 63.8469
CA -1.22323 44.5939 46.6011
CA 20.8179 13.2852 85.1177
CA 19.5655 29.8842 65.3556
CA -5.53979 22.237 37.0198
CA 15.5308 28.0431 52.074
CA 9.72966 37.6919 76.3415
CA -4.03983 26.3897 65.1523
CA -17.0867 30.0394 33.3448
CA 5.1639 6.19029 61.5619
CA 12.4319 38.3792 55.2887
CA 20.8896 -2.60268 55.3514
CA 25.0718 24.631 83.646
CA 2.30742 30.2367 31.4793
CA 22.491 9.05773 66.0435
CA 20.329 10.423 61.0631
CA -3.7496 29.9868 15.3777
CA 21.2619 21.4306 75.2588
CA 3.35703 37.36 74.6999
CA 11.0541 39.6051 74.5083
CA 11.0039 26.195 59.3419
CA -0.113882 22.5673 86.0491
CA 18.2639 26.9035 60.8522
CA 33.2744 27.1769 64.4228
CA 4.56922 40.141 43.2708
CA -15.0515 28.1881 34.4621
CA -11.4248 22.7363 55.8064
CA -13.2644 27.2572 34.6521
CA 32.3688 26.571 62.819
CA -0.261841 17.0495 15.3026
CA 23.5788 36.9967 70.1031
CA 29.6561 20.7058 83.2877
CA 17.4972 23.3296 45.483
CA 2.13664 26.6762 86.3916
CA 11.8996 24.4737 32.7051
CA -13.8585 27.5547 37.365
CA 19.3678 27.9177 64.852
CA 19.3309 13.075 83.435
CA 22.2812 46.1083 56.5828
CA -4.91344 20.4268 52.6059
CA 10.7159 28.1084 45.5952
CA -8.04898 -7.53672 52.6093
CA 28.4768 28.6686 46.2024
CA -6.67589 25.2397 31.8311
CA -12.9298 30.4181 26.6781
CA -3.20221 24.4001 16.2794
CA -13.5902 31.1936 15.8752
CA 30.1544 27.0726 59.7674
CA 17.876 0.101267 56.5877
CA 25.6042 21.3484 75.1511
CA 34.7499 26.668 59.7008
CA 0.0455445 32.086 15.3093
CA 25.5599 8.00891 72.3552
CA 8.55177 -8.93087 65.5144
CA -11.3361 16.7501 67.4701
CA -3.5129 21.9051 37.1662
CA 28.1864 14.0585 55.6979
CA 7.50976 14.3258 33.7653
CA 5.33617 -5.909 69.0299
CA -4.28375 21.3172 34.5873
CA -3.87648 6.6783 66.4032
CA 10.5936 10.0338 44.5557
CA -3.6709 33.2032 46.4451
CA -4.55841 16.7392 62.5045
CA -5.09593 22.8155 44.4011
CA 27.3189 13.8802 41.6119
CA -6.87461 32.4744 18.6607
CA 18.6091 28.4667 48.2782
CA 4.45453 13.223 35.1552
CA 14.4012 36.9518 58.4417
CA 19.7724 37.1621 47.7769
CA 20.6581 15.2249 80.4049
CA 25.6707 20.5502 56.7717
CA -4.4611 24.4893 51.5514
CA 12.2542 34.5409 71.7556
CA 15.3542 37.6892 64.51
CA 20.9559 10.7476 45.501
CA 21.9874 16.1603 43.4358
CA 3.01597 27.7081 43.0787
CA 23.8707 21.8135 74.9963
CA 14.6899 43.2698 52.005
CA 25.9829 42.9903 46.0311
CA -0.524439 21.4889 55.705
CA 18.7294 29.917 31.7962
CA 25.8814 22.7925 76.7851
CA 0.882393 32.7676 84.3475
CA 14.6713 30.2927 78.0635
CA 22.0614 19.4815 34.191
CA -4.03675 4.74227 60.5245
CA -9.79929 28.9029 17.4878
CA 16.6042 24.1681 24.2413
CA 16.6511 19.2454 57.2759
CA 18.3778 21.7765 63.5434
CA 20.0658 39.9694 57.2462
CA 20.0028 -4.67015 56.1991
CA 35.644 3.04664 61.3592
CA 24.6776 12.8781 38.2277
CA -7.22556 -6.89124 58.8106
CA -10.8069 18.9439 65.0866
CA 15.7566 27.0916 77.5906
CA 2.73037 7.85927 70.4869
CA 13.2243 9.36811 54.3734
CA -10.8906 19.5603 52.9939
CA 5.90828 -8.99153 70.0339
CA 8.64599 33.657 81.5407
CA 29.2496 22.6482 77.6
CA 14.5544 33.0005 61.4535
CA -0.210184 15.6977 49.4095
CA 0.72267 15.7444 38.3643
CA -11.1716 -7.22799 48.7802
CA 12.5782 29.202 46.8778
CA 17.9843 10.6293 35.9506
CA 10.9592 21.5052 52.3763
CA 12.2026 14.2448 36.5285
CA -3.18208 14.7799 53.306
CA -2.40451 28.1875 45.6212
CA 19.4539 8.03105 62.7767
CA -2.79974 6.24484 68.5452
CA 13.6685 10.6347 41.8851
CA -1.49245 36.0526 90.3043
CA 14.6143 27.7469 49.772
CA 26.9458 26.2928 64.3752
CA 24.9689 6.62932 64.7383
CA 1.64623 48.4305 76.1031
CA 17.2038 18.8302 79.3884
CA 24.247 12.9115 76.5971
CA 4.02598 15.7747 49.1621
CA 17.2788 1.72299 57.8241
CA -7.06349 24.4913 37.9136
CA 15.7151 17.6059 46.6465
CA 19.9244 15.2477 61.0307
CA 0.337125 11.8663 65.6445
CA 6.62281 34.1023 62.3535
CA 25.3482 23.0403 82.6815
CA 3.83816 25.4899 46.4264
CA 15.2633 29.905 32.5608
CA 25.5168 12.354 73.764
CA 30.1307 27.8376 62.8489
CA -7.59518 25.2896 21.1595
CA -6.04975 34.5963 19.6181
CA -11.4017 -10.2094 54.5079
CA 25.619 31.8608 58.7291
CA 15.7637 40.836 53.3051
CA 23.7515 30.1284 67.7246
CA 2.37862 -16.044 56.656
CA 13.567 19.3922 75.4375
CA 20.3456 14.5566 89.7036
CA 22.9328 7.6839 62.2907
CA 24.0386 36.2524 67.8185
CA 15.5913 32.9503 59.6689
CA -9.6193 11.2952 64.885
CA 18.2614 17.9908 49.0309
CA -11.9968 23.3868 71.7464
CA -0.840621 28.8349 42.6933
CA 24.0073 26.2452 66.8834
CA 4.47893 38.7988 63.8598
CA 4.48082 -12.3907 57.6886
CA 23.2801 37.4958 49.9276
CA -11.9724 16.6581 63.398
CA -16.2342 29.5554 45.2353
CA -2.47136 32.4888 79.0071
CA 18.2757 2.39448 61.4591
CA 5.38269 23.6353 60.3659
CA 7.11403 42.9672 38.6046
CA 5.58363 19.7224 61.2796
CA -10.6433 35.3298 16.8824
CA 15.0527 20.3308 79.0924
CA 20.1282 8.43749 47.1224
CA 17.309 24.4987 37.0545
CA -2.12105 18.4788 33.3534
CA 29.2153 34.0807 56.6777
CA 4.693 26.437 36.6174
CA 1.41034 -1.78807 54.2955
CA 13.6133 28.8776 59.0208
CA -1.04966 38.2414 73.2845
CA -11.7093 20.739 28.7089
CA 23.7243 3.96914 67.8699
CA 25.7997 27.2929 57.9089
CA 25.7037 -2.926 55.2325
CA -3.76233 27.9246 20.7135
CA -1.34016 10.6026 67.7889
CA 27.2128 4.69004 44.3623
CA 3.40948 36.4179 76.8749
CA 6.87507 -12.5073 68.4383
CA -0.456282 -13.4379 53.4042
CA -6.88831 8.92104 64.6748
CA 8.03753 24.4713 67.6843
CA 9.28819 24.1616 36.6061
CA -9.70113 19.7719 25.038
CA 8.91704 28.2144 42.2104
CA 12.1642 25.0331 66.8287
CA -8.22421 33.7538 72.7568
CA 10.223 31.2212 64.5502
CA 13.1787 21.0665 76.6856
CA -0.975003 17.1442 39.4941
CA -2.92207 -5.86637 68.9333
CA 3.45975 24.4681 89.441
CA 21.5858 24.84 48.3123
CA 14.3396 24.3694 77.4378
CA 21.2988 32.1356 68.2188
CA 23.2591 34.1337 65.0341
CA 4.11398 27.7328 32.6835
CA 26.0983 38.0127 50.5955
CA 18.1964 26.1326 24.2938
CA 27.6215 41.1317 48.4828
CA -15.8167 28.451 31.8823
CA 6.22922 42.7437 62.9467
CA 25.0011 31.8842 45.46
CA -3.49745 37.7027 44.0272
CA 12.8216 35.513 52.761
CA 15.9714 20.8512 80.8248
CA 35.1164 27.2986 64.2916
CA 9.4335 33.5019 90.5655
CA -10.6982 -7.66784 55.3425
CA 27.3573 1.36137 55.904
CA -6.94128 34.8276 71.3541
CA 20.2828 -3.40799 57.575
CA 19.2326 8.2739 69.2399
CA 0.504458 17.0224 65.4934
CA 15.3221 32.6516 79.214
CA -9.46478 19.6857 61.1978
CA 38.3814 -1.73052 59.1922
CA 22.9347 10.0389 70.7372
CA -7.73204 35.7172 18.1562
