489

CA -6.82887 23.4375 66.9234
CA 23.5021 9.63528 50.2886
CA 13.7501 21.2677 66.7255
CA 1.11122 15.9949 52.913
CA -7.21718 22.7518 38.1601
CA 14.0214 22.944 65.5664
CA 18.934 2.58901 46.5554
CA 8.46145 0.866931 72.1437
CA 23.1271 25.3403 35.8073
CA 19.7014 37.4138 51.0069
CA 23.4457 17.6219 32.8887
CA 11.8181 40.2859 72.8229
CA 2.68268 23.5604 21.4876
CA 16.8246 28.5069 41.0151
CA -5.55636 24.576 17.7053
CA 16.4155 32.5302 64.5265
CA 28.6651 5.54629 42.5497
CA 7.03121 2.52515 67.9357
CA 11.9326 28.2045 60.8085
CA -2.38481 15.3003 63.7256
CA 21.3051 25.3939 66.3621
CA -0.999264 24.1364 15.5615
CA 25.4161 26.0478 68.0072
CA 17.3738 34.1836 65.3891
CA 21.3352 9.68634 37.6127
CA 26.9466 46.0854 50.1156
CA 14.3294 22.8645 60.3808
CA 14.1528 -0.330287 55.0572
CA 9.13979 35.9327 77.8084
CA 5.17134 18.6994 58.891
CA 3.0979 36.7029 45.9579
CA 2.64003 29.5221 82.6908
CA 30.4043 30.2046 50.8448
CA -2.35036 -13.9365 55.6622
CA 8.83834 42.4815 75.9921
CA 20.2404 27.8108 68.4478
CA 25.5215 24.0575 35.3102
CA 31.8987 33.7487 51.3592
CA 16.2187 3.42224 56.9353
CA 21.4757 14.4123 83.0958
CA -7.32641 31.9806 16.4379
CA 25.4141 2.35468 66.3304
CA 21.3218 22.9602 60.7571
CA -0.0517187 -8.58664 51.6176
CA 9.95252 24.3037 76.2776
CA -0.807402 18.268 32.1475
CA 15.701 18.2551 60.7181
CA -14.1633 36.9935 18.4703
CA 35.6993 -1.10957 57.8866
CA 3.31495 15.5919 64.5709
CA 18.0696 23.3811 65.7965
CA 1.28254 37.092 84.5881
CA 9.87614 22.8446 64.6638
CA 25.4306 31.5843 71.5991
CA 21.1152 28.0271 85.4735
CA 23.3474 0.350062 53.9253
CA 18.8757 17.2271 51.9531
CA -2.0158 33.8139 85.2172
CA -4.5887 38.1934 16.4467
CA 12.3551 22.277 40.566
CA 1.04347 31.0908 43.2127
CA -4.31397 21.8444 38.9594
CA -1.72675 1.43148 59.251
CA 21.9938 40.5964 46.5034
CA -15.7297 28.326 42.2856
CA 19.4447 24.0969 24.7803
CA 10.1691 26.5115 39.4114
CA 16.5204 6.02155 54.4825
CA -3.36185 37.2875 72.7424
CA -6.00784 26.0949 23.6335
CA -2.65962 23.9306 9.92362
CA 21.01 24.141 34.6236
CA 20.9044 10.1289 75.5554
CA 26.8943 33.0963 68.037
CA 12.1008 35.0327 67.2833
CA 13.4875 23.6332 50.7438
CA 16.4795 36.5355 56.8593
CA 2.88826 23.1715 36.7592
CA 17.7473 25.1587 74.7038
CA 23.8 7.50123 70.2724
CA 0.865179 23.0098 18.8824
CA -4.87341 27.6115 27.5466
CA 25.6239 5.28016 39.4612
CA -2.51267 22.9972 46.7869
CA 14.8013 33.6743 55.5016
CA 1.3753 34.5073 75.5262
CA -2.67725 -16.5384 53.2304
CA 14.2293 24.598 29.4796
CA 15.3793 21.301 68.1258
CA 7.23133 18.21 56.733
CA 3.45779 22.7044 43.9982
CA 21.4119 18.7182 51.8475
CA 20.4874 12.5518 87.0371
CA 0.860135 21.5561 28.2574
CA 19.4083 8.31708 34.0878
CA -0.188612 28.7603 76.6786
CA 26.6303 22.4629 66.3352
CA 19.6443 24.4769 59.8053
CA -14.2797 39.3682 16.388
CA 11.58 21.4328 25.2344
CA 8.35602 29.8139 44.9098
CA 12.0594 9.17019 41.9265
CA 30.5767 1.89526 61.7811
CA 0.0414825 18.7179 16.8922
CA 24.1535 20.4627 54.1971
CA 36.7292 29.5156 50.3144
CA 2.50689 41.8693 73.2485
CA 11.3849 19.663 66.6155
CA -4.37662 13.8627 58.8591
CA -12.6256 19.9236 69.9766
CA -5.59824 26.2873 52.2921
CA -4.1104 -11.6867 50.1907
CA -3.08673 24.0341 14.4999
CA 18.2813 28.2536 23.4667
CA -17.5143 32.6574 31.611
CA 16.1988 21.8272 66.0546
CA -0.551744 20.7565 34.0507
CA -10.373 32.8908 18.4106
CA 33.4749 1.92269 60.0113
CA -7.16523 18.8145 69.7398
CA 1.09238 24.5833 45.8243
CA 19.0317 25.2466 43.5785
CA 22.4786 34.4559 66.7608
CA 14.8705 36.9762 70.9607
CA 24.1329 34.2644 63.3647
CA 0.196517 15.4736 51.2623
CA 4.79589 5.75202 71.7742
CA 17.4078 18.4266 36.3268
CA 19.4183 28.4819 84.9738
CA 14.0382 9.45123 39.4538
CA 9.43491 41.9558 63.4591
CA 20.7628 26.3371 56.6152
CA 12.8388 18.0478 76.8032
CA 12.0296 32.2239 56.2582
CA 32.1944 29.8594 48.3029
CA -6.71934 4.46956 60.5231
CA 6.85396 29.8783 84.1424
CA 17.888 2.2881 48.4094
CA 9.14051 24.7628 79.6754
CA 2.4071 25.592 42.2075
CA 4.25199 48.2747 78.2619
CA 7.94633 -2.10534 71.7872
CA -6.08512 17.319 54.283
CA 1.1805 25.3822 49.4499
CA 18.4303 21.5805 74.804
CA 27.4733 13.2175 71.6663
CA 24.7645 3.9257 42.4939
CA -3.65574 31.6738 82.3868
CA 26.2858 18.3062 42.2127
CA -4.65678 26.3625 20.4635
CA -18.7472 33.2969 46.1221
CA 22.1265 12.5516 78.4579
CA 4.56932 27.2794 30.2094
CA 27.4641 8.59428 39.4839
CA 28.6644 46.4427 48.112
CA 23.2418 30.619 83.4562
CA -20.6181 32.6087 45.7213
CA 22.6923 22.9336 81.4241
CA 2.58652 40.5527 86.7652
CA 26.6436 13.5149 76.8878
CA 25.8708 2.49695 46.0542
CA -15.1873 27.6185 30.5891
CA 16.3198 15.9336 47.3239
CA -11.4099 16.3701 66.2454
CA 31.8705 27.8394 65.4334
CA 27.3774 18.1099 36.8067
CA -5.6029 0.690079 57.7754
CA 4.26053 39.1133 74.153
CA -9.2917 -8.65654 54.1274
CA 25.4999 40.2181 49.8042
CA 17.6172 1.78514 52.3404
CA 24.4354 18.4906 35.9781
CA 3.56173 9.10471 61.9755
CA 7.51486 34.0668 86.4472
CA 16.364 30.1495 44.6891
CA 24.2625 9.83751 47.5936
CA 29.1276 34.6498 68.2578
CA 10.6049 36.2893 63.2865
CA 13.4135 25.4535 64.5521
CA 12.0688 6.91631 40.0846
CA 16.3531 32.2537 61.173
CA 25.1511 10.4647 53.8387
CA -2.97805 25.2467 38.7706
CA -4.5104 18.3377 33.6257
CA 24.0232 10.5051 78.8898
CA 0.659095 27.8962 85.8144
CA 28.4834 0.892031 66.1113
CA 18.8448 29.2447 68.2204
CA 29.4258 26.2051 56.1385
CA 23.1551 6.12101 67.7627
CA 13.5638 6.2478 45.4629
CA 17.0899 -0.0151694 53.0405
CA 0.253358 25.3139 18.2304
CA -1.2088 35.6615 48.9417
CA -0.815639 26.4254 22.4878
CA 16.2384 3.86296 51.2098
CA 22.5281 26.3978 59.7178
CA 8.12228 26.631 62.7357
CA -3.52016 17.4509 57.8073
CA 2.30921 36.9982 47.6193
CA 24.7892 0.0715744 52.0417
CA -8.6784 12.7861 63.3122
CA 21.5921 27.1106 69.4589
CA 9.59728 19.2863 34.6697
CA 9.83999 11.6536 40.5208
CA 15.8565 34.3251 64.3876
CA -13.5043 33.4491 18.6687
CA 27.4457 22.7203 78.0146
CA 23.9255 10.6449 38.3859
CA -1.57073 14.2787 62.476
CA -1.95978 25.2565 65.6389
CA 3.23056 40.8453 63.706
CA 25.4606 9.31793 36.0728
CA 1.50973 25.7019 16.1059
CA 17.6941 13.2697 58.1692
CA -5.89003 27.1563 18.6874
CA 34.3483 0.343178 58.8955
CA 19.0427 23.685 52.7415
CA 23.7574 17.8127 85.8479
CA 1.86174 40.5423 42.2034
CA 23.0209 38.4865 65.2279
CA 13.0277 23.1209 80.3351
CA 0.123582 39.9936 46.7606
CA 0.301982 41.8606 47.0039
CA -2.47303 35.6787 82.201
CA -12.5373 32.9771 23.053
CA 16.5883 31.689 46.2044
CA 32.6812 26.3415 67.9583
CA 4.04179 40.5508 49.3002
CA 18.0505 1.82715 54.8469
CA 11.4305 20.42 35.3064
CA 1.14183 -6.43784 54.5643
CA 15.6292 37.6252 69.4622
CA -3.65039 37.7324 91.4406
CA 28.5037 44.551 50.3392
CA 7.67781 34.6115 43.6108
CA 4.61794 8.75297 57.8912
CA 22.8749 29.9527 70.4436
CA -4.41622 9.05966 58.4746
CA 27.4872 4.78909 38.8642
CA 20.9838 26.1964 53.8885
CA 1.53128 36.3437 60.8961
CA 5.17414 8.4573 63.7164
CA 9.43321 8.40436 60.9273
CA 25.2229 45.7985 52.4587
CA 23.0362 31.341 67.2772
CA 2.06509 16.9324 63.5647
CA -6.77605 -7.3047 51.1188
CA -9.46258 36.4654 18.7301
CA 31.9514 29.9803 66.3637
CA 7.26789 17.1299 34.7899
CA 18.2701 8.56155 47.0524
CA 31.9514 28.5394 62.5538
CA -9.02616 34.2319 45.2193
CA 27.4708 30.495 48.5558
CA -1.85494 25.8938 35.6489
CA 27.1828 15.4857 73.5841
CA 14.099 37.9792 56.7406
CA 0.357433 36.7562 72.742
CA 16.405 15.2423 80.7923
CA -7.30696 7.77251 58.3972
CA 11.7112 35.6031 76.6855
CA 7.41045 47.9027 81.0849
CA 18.7094 33.3352 59.6784
CA 3.38386 43.1638 75.8468
CA 20.8587 9.23078 63.8469
CA 38.0202 27.689 68.4491
CA 20.8179 13.2852 85.1177
CA 26.4112 23.0833 81.546
CA -5.34017 2.20226 53.4318
CA 15.5308 28.0431 52.074
CA 11.6974 39.8001 45.6366
CA -0.0107848 25.7203 83.9014
CA 23.5984 26.7093 70.437
CA -9.53851 32.5637 16.2061
CA 12.4319 38.3792 55.2887
CA -11.3806 27.0363 33.6234
CA 25.0718 24.631 83.646
CA 2.30742 30.2367 31.4793
CA 24.7811 12.0687 80.8832
CA 20.329 10.423 61.0631
CA -3.7496 29.9868 15.3777
CA 21.2619 21.4306 75.2588
CA 3.35703 37.36 74.6999
CA -10.0187 26.5644 24.0934
CA 28.8969 27.9433 50.273
CA 10.0907 40.0879 62.9389
CA 11.541 17.6908 67.96
CA 33.2744 27.1769 64.4228
CA 5.46743 22.7491 15.647
CA 22.8426 19.2341 82.4101
CA -0.650871 39.1297 41.9036
CA 15.1768 6.29651 42.6894
CA 4.42893 20.3398 25.4986
CA -1.21765 21.4992 50.4577
CA -1.33287 4.83668 62.7915
CA 29.6561 20.7058 83.2877
CA 23.8929 35.467 61.2136
CA 2.13664 26.6762 86.3916
CA 11.8996 24.4737 32.7051
CA -1.51215 31.2512 14.9145
CA 3.84152 34.1538 73.8758
CA 19.3309 13.075 83.435
CA 16.335 24.9985 80.7552
CA -4.91344 20.4268 52.6059
CA -0.315298 0.44573 56.9697
CA 1.08673 -11.4725 57.4885
CA 5.65771 7.30272 61.5455
CA -6.67589 25.2397 31.8311
CA -12.9298 30.4181 26.6781
CA -2.21634 6.57106 61.8005
CA 7.37432 7.85342 54.1628
CA 30.1544 27.0726 59.7674
CA 15.7553 18.6747 77.0743
CA 25.6042 21.3484 75.1511
CA 10.524 24.5142 68.4511
CA 0.684715 13.5956 35.6396
CA 2.48208 6.64392 68.9533
CA 8.55177 -8.93087 65.5144
CA -1.06377 39.1209 45.2462
CA -13.0472 26.8439 32.5792
CA -15.1952 32.6047 34.96
CA 30.051 20.247 77.4021
CA 5.33617 -5.909 69.0299
CA 22.9273 -4.40775 55.2553
CA -3.87648 6.6783 66.4032
CA 10.659 16.3496 37.6881
CA -3.6709 33.2032 46.4451
CA -4.55841 16.7392 62.5045
CA 25.6824 35.3514 47.4581
CA 3.42698 29.7325 33.5282
CA -6.87461 32.4744 18.6607
CA 3.32753 26.0929 32.394
CA -2.59705 -1.04084 57.4198
CA 2.41507 27.9415 35.8367
CA 19.7724 37.1621 47.7769
CA -6.1626 22.2326 42.5874
CA 6.04549 7.82453 66.0456
CA -4.4611 24.4893 51.5514
CA 4.17221 8.29414 72.5821
CA 9.19257 23.8675 66.6558
CA 7.273 38.7792 63.6766
CA -10.8417 -13.4076 53.8645
CA 14.1608 24.1977 67.7178
CA 13.1766 19.5092 67.4925
CA -3.8363 33.7785 18.7213
CA 13.2646 28.3121 48.5317
CA -0.524439 21.4889 55.705
CA 4.90335 33.5812 28.1943
CA 25.8814 22.7925 76.7851
CA 0.882393 32.7676 84.3475
CA 21.2028 12.9102 41.6962
CA 22.0614 19.4815 34.191
CA 3.00448 23.7848 60.5928
CA -9.79929 28.9029 17.4878
CA 16.6042 24.1681 24.2413
CA 20.5308 32.525 52.7576
CA 18.3778 21.7765 63.5434
CA 20.0658 39.9694 57.2462
CA 24.6902 18.1819 73.1485
CA 35.644 3.04664 61.3592
CA 24.6776 12.8781 38.2277
CA 27.3786 24.6988 66.6945
CA -10.8069 18.9439 65.0866
CA 5.35501 7.30613 59.137
CA 23.114 30.9435 72.3013
CA -1.12919 32.5664 81.267
CA -10.8906 19.5603 52.9939
CA 6.93596 32.0274 47.8163
CA 40.0358 25.0176 66.3031
CA 14.9932 33.078 62.2814
CA 16.0154 28.573 70.2393
CA 0.235771 8.94217 65.3521
CA 0.72267 15.7444 38.3643
CA -11.5581 30.0415 45.284
CA 12.5782 29.202 46.8778
CA 14.4324 22.2254 79.2607
CA 27.0365 13.0308 50.08
CA 15.816 25.087 72.4342
CA -3.18208 14.7799 53.306
CA -2.40451 28.1875 45.6212
CA 19.4539 8.03105 62.7767
CA -2.79974 6.24484 68.5452
CA 25.9627 25.0668 62.5967
CA -1.49245 36.0526 90.3043
CA 3.07027 39.1069 77.8619
CA -0.971734 14.3807 49.6001
CA 15.1436 29.524 54.9852
CA 16.6001 22.6463 68.85
CA 4.55869 37.5609 65.2593
CA 24.247 12.9115 76.5971
CA 23.2107 16.3408 72.2451
CA 9.38782 -8.36493 62.8458
CA 8.46671 37.9885 46.2064
CA 15.7151 17.6059 46.6465
CA 19.9244 15.2477 61.0307
CA 13.1041 19.589 31.0186
CA 6.62281 34.1023 62.3535
CA -0.154888 23.4812 12.419
CA 3.83816 25.4899 46.4264
CA 2.37666 38.189 71.0266
CA 4.05074 15.2317 41.9213
CA 30.1307 27.8376 62.8489
CA -3.28003 31.9887 44.3254
CA -6.04975 34.5963 19.6181
CA 25.0074 34.8403 66.3309
CA 25.619 31.8608 58.7291
CA -8.03733 30.9926 46.4814
CA 23.3924 31.9326 52.2309
CA 25.8315 29.5967 53.7678
CA 4.89799 25.8973 89.497
CA 5.9581 36.7816 72.2489
CA 20.9182 6.74952 37.8816
CA 12.0536 8.34832 43.7161
CA 15.5913 32.9503 59.6689
CA 29.6278 24.976 83.1125
CA 18.2614 17.9908 49.0309
CA -11.9968 23.3868 71.7464
CA 25.3512 16.9471 83.6138
CA 24.0073 26.2452 66.8834
CA 4.47893 38.7988 63.8598
CA 0.555423 17.0407 32.0057
CA 18.1437 27.7273 72.4674
CA 19.2863 33.9894 55.6695
CA 21.2347 6.4393 47.8529
CA -2.47136 32.4888 79.0071
CA 18.2757 2.39448 61.4591
CA 9.50758 6.27024 58.91
CA -16.9157 30.7625 44.0825
CA 5.58363 19.7224 61.2796
CA 3.28995 34.919 49.3873
CA 20.0377 13.6269 46.7665
CA 20.1282 8.43749 47.1224
CA 2.33658 27.9153 45.0222
CA 10.3346 25.7174 34.2639
CA -4.05987 8.65697 69.9385
CA 11.2774 21.3952 49.2528
CA 1.41034 -1.78807 54.2955
CA 11.6869 36.8377 75.2223
CA -1.04966 38.2414 73.2845
CA 12.857 16.1362 35.0586
CA 21.2188 8.73025 39.7874
CA -3.24 24.1778 12.5162
CA 25.7037 -2.926 55.2325
CA -3.76233 27.9246 20.7135
CA 0.193158 38.3285 61.4728
CA 27.2128 4.69004 44.3623
CA 6.65475 42.0119 88.3677
CA 10.7052 31.6366 48.0548
CA -0.456282 -13.4379 53.4042
CA -6.88831 8.92104 64.6748
CA -6.59306 24.5109 63.851
CA 13.8215 5.99247 41.3415
CA 22.5512 18.1978 84.5374
CA -1.12579 -15.4248 54.8944
CA 21.2108 28.3506 56.5815
CA 21.1169 25.1236 58.0415
CA 13.1116 33.0762 58.4201
CA 13.7406 9.75863 41.348
CA -0.975003 17.1442 39.4941
CA 4.08961 22.0983 89.3686
CA 3.45975 24.4681 89.441
CA -15.4858 33.1026 19.2429
CA 25.1053 1.02625 41.5285
CA 21.2988 32.1356 68.2188
CA 23.2591 34.1337 65.0341
CA 4.11398 27.7328 32.6835
CA 26.6314 29.7519 64.4671
CA 18.1964 26.1326 24.2938
CA 27.6215 41.1317 48.4828
CA 14.748 9.63597 49.9768
CA 6.22922 42.7437 62.9467
CA 21.8183 36.8401 66.2216
CA 15.8091 2.11362 51.9124
CA 8.82348 24.9184 63.7988
CA -9.55844 26.1935 30.57
CA 11.1942 9.35542 49.0851
CA 9.4335 33.5019 90.5655
CA -2.69733 24.9188 51.0529
CA 27.3573 1.36137 55.904
CA 0.511679 46.1548 79.5405
CA 20.2828 -3.40799 57.575
CA 21.9609 41.3553 50.4631
CA 0.504458 17.0224 65.4934
CA -10.2861 25.1182 29.3201
CA -9.92864 18.6591 62.2205
CA 10.5493 27.1789 47.4624
CA 2.41804 28.9132 30.0148
CA 26.0916 0.554136 47.2726
