489

CA 32.3675 28.1043 51.041
CA 8.52914 16.6539 42.5984
CA 18.8423 32.8784 39.7894
CA 8.471 11.3439 58.5339
CA 18.3561 25.5721 37.7586
CA 29.5902 18.9882 65.9466
CA 4.62801 32.5824 81.9449
CA 27.0378 31.2102 66.6624
CA 0.329557 41.6335 76.034
CA 18.7223 19.8929 81.797
CA 13.2533 16.868 80.9849
CA 9.36387 16.9408 67.5461
CA -2.10904 17.6289 60.5417
CA 16.8246 28.5069 41.0151
CA -0.237569 32.6818 46.9994
CA 29.623 3.36647 43.4731
CA 16.7014 30.3873 72.186
CA -12.2516 30.175 46.448
CA 12.0545 40.2752 81.6253
CA 32.8253 19.7846 73.6966
CA 24.1824 26.5266 67.1026
CA -0.999264 24.1364 15.5615
CA 31.6539 32.7855 49.7826
CA 15.8789 25.0717 57.0388
CA 20.9269 14.1164 90.4779
CA -7.65321 32.7221 14.8032
CA 27.9746 21.8669 73.0046
CA 9.81137 41.3308 52.8281
CA 2.04918 33.0486 47.8593
CA 8.78171 8.61221 58.3059
CA 21.639 28.5364 73.7605
CA 0.654576 21.2138 36.2858
CA 21.6569 19.8376 72.5632
CA 6.14893 32.5948 35.5152
CA 8.68201 34.6563 71.9944
CA 0.438464 38.9599 76.5428
CA 12.6225 11.4407 59.1754
CA 0.37554 23.7507 77.8234
CA 25.9867 42.4861 46.4083
CA 6.44494 30.1682 85.9404
CA -7.17469 25.3382 83.0694
CA -5.71954 -8.10248 49.7585
CA 21.9891 35.9109 63.9554
CA -0.0517187 -8.58664 51.6176
CA -1.70172 41.2534 80.3426
CA -3.61883 28.2168 53.7792
CA 4.59315 19.235 33.4025
CA -7.32092 22.6827 12.8244
CA 15.5115 27.7251 78.7427
CA 11.0826 27.1672 62.521
CA 23.7045 16.6909 67.0117
CA 32.1854 22.633 65.4829
CA 34.2285 26.2195 45.085
CA 0.591204 28.4975 22.2286
CA 7.19335 38.5002 47.4844
CA 1.98145 33.6218 45.9603
CA -2.02582 26.6156 40.7547
CA 18.0453 34.9209 38.0833
CA 13.0254 31.6696 63.0166
CA 25.5901 26.2573 69.8137
CA -2.36241 27.0446 54.6627
CA 12.2832 44.9759 80.2639
CA 19.4029 16.5582 72.3768
CA 13.7765 35.3559 53.921
CA 1.91157 36.7548 43.4408
CA -18.4108 30.7813 34.1865
CA -9.32547 34.3907 48.9223
CA -21.136 30.8107 45.2856
CA 30.5575 37.0435 68.2714
CA 24.9076 2.56541 41.661
CA -0.451023 40.4089 17.0282
CA 8.7615 28.8417 84.3713
CA 3.30972 29.614 80.7137
CA 7.55091 33.7857 39.0051
CA -7.19779 18.6595 38.0936
CA 0.125536 31.9295 49.7997
CA 23.4926 23.1658 63.9665
CA 1.89567 5.63989 70.5111
CA 19.4706 4.26452 51.9078
CA 25.7434 -2.40819 55.073
CA 0.865179 23.0098 18.8824
CA -4.55313 20.8384 47.0028
CA 15.9898 5.64754 52.9466
CA 5.30777 14.3218 23.9337
CA 14.8013 33.6743 55.5016
CA -4.1527 34.5961 48.0221
CA 8.00566 18.7717 39.6017
CA 14.2293 24.598 29.4796
CA 28.009 37.3466 62.1777
CA 22.3425 17.5786 71.3868
CA 11.0993 30.3474 65.6532
CA 4.65082 35.2186 76.1692
CA 28.3125 25.2465 71.6603
CA 20.0596 30.7383 55.4536
CA 16.4493 25.9277 43.6234
CA 1.50507 28.3256 43.6413
CA -7.21404 39.0935 48.8369
CA 4.08646 35.8703 34.1631
CA 22.9869 3.65489 42.1588
CA 6.75218 -11.9059 58.0852
CA 14.4684 11.3035 47.7336
CA 27.6734 23.0851 60.5647
CA 14.0346 25.8201 64.4973
CA 10.3523 35.689 54.2841
CA 21.9539 27.2101 42.0289
CA 7.13562 32.7235 86.4589
CA 22.1598 42.0173 58.9319
CA 17.5033 30.7206 35.7675
CA -4.37662 13.8627 58.8591
CA 4.47746 30.5934 87.04
CA 29.8425 29.055 69.9973
CA -4.1104 -11.6867 50.1907
CA -3.08673 24.0341 14.4999
CA 18.7921 12.9324 43.2052
CA -4.76166 30.1108 82.1389
CA 1.59189 25.9946 88.7254
CA -11.2677 30.6754 32.3244
CA 25.7793 26.8894 61.192
CA 3.24899 20.2605 29.2103
CA -10.4432 35.7458 15.3622
CA 22.2129 31.5244 52.1224
CA -4.09515 38.3355 89.7988
CA -11.7591 36.4177 16.7496
CA 4.60663 43.3003 77.3952
CA 6.03486 37.442 37.8851
CA 15.9378 10.1415 50.5946
CA 15.6005 25.9569 59.7519
CA -3.82197 35.9292 16.4547
CA 26.1233 -0.86158 59.1434
CA 33.5566 37.9926 46.5178
CA 22.2434 11.6253 86.8288
CA 10.198 14.4541 37.3296
CA 0.644516 16.9798 27.9597
CA 23.4903 21.5265 43.3582
CA -16.753 28.0748 40.783
CA 1.17398 20.1447 28.0455
CA 16.6072 1.40365 54.9926
CA 20.3573 32.4343 71.3436
CA 18.0341 25.5767 55.7392
CA -5.2277 29.2179 49.52
CA 7.31819 35.8279 79.1995
CA 7.94633 -2.10534 71.7872
CA 3.78438 10.4113 73.2794
CA 7.44861 5.10611 66.5895
CA 10.5358 23.7147 70.7934
CA 33.159 15.3827 64.9528
CA 22.0625 27.9193 59.5195
CA 35.7605 28.4389 60.8523
CA 26.2858 18.3062 42.2127
CA -10.6033 25.5737 29.5383
CA 5.65264 9.00576 69.7935
CA 11.1296 34.4567 65.4605
CA 7.285 21.326 34.9525
CA 22.6915 14.5961 82.9247
CA -7.48749 36.8563 93.5863
CA 21.8709 34.0638 66.2626
CA 0.569171 34.0759 84.6533
CA 16.068 8.93156 54.7381
CA -6.60063 25.4785 38.8277
CA 17.725 29.2004 70.6082
CA 18.7035 6.15703 43.8694
CA 14.7876 20.5208 69.8327
CA 33.5645 22.0014 67.8383
CA -9.3894 37.2004 49.1142
CA -3.55229 18.5782 50.5642
CA 24.5215 45.9435 60.0786
CA -5.6029 0.690079 57.7754
CA 6.79964 25.6658 46.6735
CA 30.3895 34.2913 61.2454
CA 32.7632 27.5943 61.2525
CA 18.4145 21.7337 61.119
CA 24.4354 18.4906 35.9781
CA 0.395591 29.6829 73.9927
CA 15.9938 32.8348 43.2407
CA 22.621 16.5718 35.5314
CA 22.092 24.3408 45.3875
CA 30.0349 -1.49309 43.8209
CA 6.22041 38.524 39.9229
CA -1.80216 7.38093 70.7162
CA 23.3523 20.4763 40.521
CA 16.3531 32.2537 61.173
CA 4.87602 39.7771 74.9825
CA -0.0771816 30.1411 43.6312
CA -5.58413 22.0747 55.1271
CA 29.6207 32.205 49.9755
CA -12.1723 22.5069 33.7964
CA 32.8494 35.9944 47.0637
CA 22.148 40.0809 62.1647
CA -12.0717 32.9314 50.0728
CA 18.6869 10.6571 62.5853
CA 14.0438 9.12337 44.8366
CA 34.0553 34.2878 50.7228
CA 2.17874 27.3439 30.2765
CA 0.737478 34.438 47.4456
CA 8.09366 23.7346 51.0528
CA 27.1536 23.1496 53.4457
CA 9.1382 10.3604 41.9328
CA -4.6804 24.9802 39.2143
CA 10.7676 31.2186 62.3945
CA 22.6524 42.9736 43.5433
CA 24.7892 0.0715744 52.0417
CA 4.853 20.1379 86.5421
CA -3.83752 25.2079 55.7967
CA 23.6591 23.9128 68.5192
CA 8.05964 28.7438 87.6562
CA 4.6901 23.7157 35.7173
CA 18.3605 24.5989 30.1906
CA 2.44969 4.00366 67.3158
CA 4.38978 26.4706 43.9013
CA 8.53036 38.2291 51.0494
CA 31.4075 36.6356 59.9898
CA -11.6844 13.2108 66.6423
CA -2.42389 34.9926 93.0816
CA -5.5448 34.1165 22.8852
CA 27.5195 32.1486 53.4283
CA 17.7801 29.4158 74.011
CA 23.113 16.2837 56.5928
CA 14.16 37.8358 54.7858
CA 32.3044 25.9953 66.9259
CA 14.4058 16.0908 79.5264
CA 14.6875 19.8969 80.8705
CA 17.3738 1.71475 58.5938
CA 12.4417 28.9087 61.1165
CA 12.7994 9.02613 43.2529
CA 25.6321 29.7242 73.6467
CA 18.8979 8.80637 53.9488
CA 7.36514 9.70308 67.3004
CA 9.26861 8.088 42.489
CA 4.25484 25.8122 87.6123
CA 11.6113 5.46233 53.1095
CA 8.90894 37.302 55.2141
CA 17.6634 29.6489 51.5813
CA -5.64139 10.187 55.6647
CA 3.65117 3.13721 63.4556
CA 24.1564 15.9193 53.5833
CA -1.33589 9.93789 71.5089
CA 20.243 36.2997 47.8525
CA -2.60503 32.9429 92.9454
CA -2.2904 32.0303 53.7866
CA 27.9928 35.5078 63.1106
CA 5.89552 39.5584 72.5566
CA 13.0499 19.5896 64.7545
CA -0.942788 17.1417 62.5093
CA 9.43321 8.40436 60.9273
CA -4.65437 32.0401 87.8011
CA -0.119761 21.5847 84.4823
CA 2.06509 16.9324 63.5647
CA 11.6985 45.0104 78.5386
CA 27.0225 25.0817 52.664
CA 18.8578 -0.4589 58.6973
CA -1.4547 24.0454 45.9954
CA 3.0413 -8.56146 48.9622
CA 29.5129 14.6628 63.2706
CA -4.0308 28.9759 36.7127
CA 16.2736 27.6476 76.8106
CA 6.0605 0.74216 69.737
CA 0.26266 32.2104 42.2751
CA 23.5494 10.9461 56.7679
CA 26.862 4.32557 55.5381
CA 4.2927 6.12433 72.5364
CA -5.25421 25.7751 42.4109
CA 14.3214 35.916 56.815
CA 23.0967 6.93678 51.4231
CA -0.635029 33.9867 15.8551
CA 3.38386 43.1638 75.8468
CA 0.945198 31.1877 14.924
CA -18.297 26.7926 34.0888
CA 6.1393 14.616 34.1681
CA 20.8438 19.9925 82.8175
CA 0.224717 25.8246 27.3664
CA -1.58122 14.2538 73.4845
CA -3.165 11.5397 70.6223
CA -0.0107848 25.7203 83.9014
CA 15.4306 13.4303 78.6485
CA 9.88321 6.57744 47.2897
CA 12.4319 38.3792 55.2887
CA -11.3806 27.0363 33.6234
CA -11.145 32.9648 14.174
CA 1.5574 24.343 80.7866
CA 20.3166 0.497197 50.8064
CA 20.329 10.423 61.0631
CA -3.7496 29.9868 15.3777
CA 28.801 24.3203 66.7654
CA 19.7131 20.9823 73.3402
CA -0.467428 29.6564 28.878
CA 1.27731 25.1897 48.831
CA 7.87469 -9.80828 67.5553
CA -3.88043 -8.01832 48.1429
CA -3.41856 4.9275 67.8289
CA 24.0463 46.9404 47.8627
CA 5.75713 16.8155 38.8388
CA 14.2976 13.1283 60.8119
CA 22.3952 36.3055 49.2112
CA 9.48215 4.48295 62.4559
CA 5.09534 21.6282 29.5702
CA 8.12301 7.50512 68.5488
CA -16.6685 29.3583 33.2874
CA 5.28257 12.8196 42.7189
CA -5.50885 36.4365 94.897
CA 20.223 23.351 78.9827
CA 23.7592 26.5165 59.6186
CA 13.4837 19.5021 67.3207
CA 20.0396 40.8663 55.5578
CA 7.36213 -8.58636 61.609
CA 12.5069 7.39539 56.6484
CA 8.66559 31.5704 41.3845
CA 1.08673 -11.4725 57.4885
CA 1.64514 19.7148 38.543
CA -6.67589 25.2397 31.8311
CA -9.58346 38.9087 52.4473
CA -1.54113 23.2989 54.1145
CA 0.200742 10.5557 65.7553
CA 13.5414 25.9848 36.471
CA 19.27 4.31919 54.108
CA 21.614 30.5737 70.2163
CA 28.708 27.8302 64.3076
CA 26.2891 30.2245 69.3501
CA 12.0473 16.9287 55.2459
CA 8.55177 -8.93087 65.5144
CA 24.4128 23.4924 71.5428
CA 27.0256 13.246 45.3261
CA -1.80058 42.3894 76.9964
CA 40.2052 29.2376 68.7447
CA 5.33617 -5.909 69.0299
CA -2.38938 11.9459 73.2868
CA -0.366727 23.6916 49.0596
CA 10.103 39.2968 54.8635
CA 4.24882 24.6874 46.612
CA 22.5085 36.8819 58.5497
CA 19.321 28.1165 45.6138
CA -1.54587 38.04 73.6484
CA -6.87461 32.4744 18.6607
CA 18.6258 34.8794 64.5322
CA -2.59705 -1.04084 57.4198
CA 4.16992 16.3668 25.8028
CA -1.43719 38.8001 15.5083
CA -11.1959 8.78435 60.562
CA 6.04549 7.82453 66.0456
CA 42.4633 33.7131 68.0893
CA 26.6884 28.5492 71.6888
CA 18.3663 30.3405 54.6116
CA -5.17638 10.2537 76.5601
CA 32.2576 24.5773 63.1318
CA 13.0334 36.7298 68.2482
CA 2.4717 35.4853 82.5348
CA 6.03506 18.7557 35.6952
CA -2.80741 26.8334 39.1447
CA 10.8349 28.0586 36.7217
CA 9.94826 14.2068 55.3958
CA 14.2938 21.0219 24.9379
CA 6.26661 43.8812 73.7305
CA 27.9382 -0.722464 55.5928
CA 4.95609 7.85298 43.269
CA 4.92501 30.4046 30.8338
CA 23.5424 21.4437 73.1173
CA 19.8678 17.8095 46.8502
CA 2.11192 41.0699 48.3937
CA 29.8478 13.2576 68.3238
CA -5.67764 37.9014 50.977
CA 13.386 24.1089 67.0387
CA 28.6243 1.54385 62.0772
CA -1.65666 21.6724 17.6032
CA 7.30345 10.7181 48.0217
CA 4.94347 24.8992 86.0874
CA 13.0492 12.2701 46.3565
CA -10.2394 22.847 12.8522
CA 6.10793 33.4806 71.3447
CA 28.7114 24.0764 52.4244
CA 15.3652 32.3106 63.0315
CA 2.14748 30.1647 31.7183
CA 1.46026 23.1008 48.8467
CA 9.8594 36.462 80.6167
CA -16.1266 31.5106 32.2804
CA 21.5847 15.2163 85.0181
CA 0.972458 3.58199 65.3704
CA 18.6725 11.3643 52.5416
CA -0.714711 29.799 26.6126
CA 21.7026 17.7483 42.2162
CA 30.9851 23.6324 71.2329
CA -3.18208 14.7799 53.306
CA -2.90672 44.4045 76.9004
CA 27.9263 12.9819 67.3358
CA 22.7258 12.4608 49.7446
CA 6.61025 43.4769 69.5508
CA -1.49245 36.0526 90.3043
CA 40.3039 27.1604 65.0175
CA 16.7729 19.3812 78.2051
CA 15.2945 25.6198 42.2313
CA -14.61 33.3451 16.9539
CA 29.7183 31.284 68.4164
CA -11.5716 36.4931 51.6217
CA 24.2087 36.7734 46.5104
CA -6.45128 26.6191 86.581
CA 15.5946 27.5799 47.7753
CA 2.86099 27.9352 85.3936
CA 19.9244 15.2477 61.0307
CA 35.5502 27.7565 68.9768
CA 26.8564 13.588 37.4846
CA 26.0709 39.2577 47.601
CA 38.9879 24.7962 68.1126
CA -1.96911 37.2974 44.7689
CA -2.06128 27.3729 30.728
CA 5.23238 28.7547 27.9417
CA 32.4108 27.1558 63.8704
CA 18.6776 24.4622 80.07
CA 25.0074 34.8403 66.3309
CA 17.7607 32.0315 41.073
CA -8.03733 30.9926 46.4814
CA 10.6397 38.8266 56.6415
CA 11.1884 26.4531 53.8395
CA 3.07881 32.0821 18.7944
CA 26.1687 -0.590566 43.7514
CA 4.80304 32.963 16.1664
CA 31.1102 30.2768 54.0091
CA 29.2837 30.5965 64.6956
CA 2.01462 20.294 31.6047
CA -10.8679 26.6461 51.4178
CA -1.89228 42.718 47.9017
CA -3.54239 22.8383 46.2767
CA 17.8316 12.2474 86.5408
CA 27.3359 9.87847 46.9313
CA 13.3357 25.0606 34.4498
CA 3.95334 24.2453 29.2156
CA 0.2832 9.62771 69.9265
CA 2.38039 22.8631 46.6837
CA 33.1802 26.4103 69.6754
CA 21.6975 30.6491 72.2683
CA 15.1147 24.119 32.7608
CA -16.9157 30.7625 44.0825
CA 26.0712 45.0132 46.9193
CA 1.36262 23.8528 15.9892
CA 15.596 26.2064 34.4458
CA 13.8081 26.909 71.4447
CA 20.1082 23.3323 44.0867
CA 6.64948 -9.98914 50.9037
CA 14.3291 28.0599 76.4934
CA -10.9212 39.0742 16.6474
CA -6.41614 20.3494 38.9195
CA 45.6642 35.9734 70.1925
CA -7.11916 17.9157 49.0088
CA 32.115 33.3533 47.6788
CA -2.41112 39.7156 17.325
CA 0.853468 34.3106 72.2308
CA 9.37005 26.3202 67.071
CA 16.2403 11.8268 44.3519
CA 22.7731 38.9625 47.569
CA 34.3266 24.6963 64.4586
CA -8.40745 26.1298 50.6437
CA 15.2839 9.50416 43.2976
CA 23.0029 15.4454 51.9644
CA 8.29794 7.29597 52.4009
CA 16.0918 18.0595 70.1538
CA -1.14974 -4.5739 55.3188
CA 23.9913 16.1451 87.8673
CA 7.58558 15.6706 39.8414
CA 1.4875 19.3208 35.4186
CA 24.2534 14.2767 41.0891
CA 25.6933 23.0404 40.9684
CA 16.7268 12.0138 58.2949
CA 10.5597 33.0062 67.2918
CA 28.2938 32.3737 65.8042
CA 5.82058 32.6468 75.6187
CA -15.4858 33.1026 19.2429
CA 15.2523 7.43558 51.4728
CA -6.47093 7.52742 65.2217
CA -3.77548 -11.1505 55.6078
CA 13.4564 25.4704 79.0426
CA -3.09418 1.10822 65.7998
CA 2.3949 21.3677 24.645
CA -1.3975 33.1866 83.2862
CA -2.11784 29.5882 16.3999
CA 10.5211 23.6961 51.5695
CA 31.3891 4.77132 58.2457
CA -11.1034 9.42658 65.967
CA -2.24262 21.7356 40.5348
CA 3.26409 -9.61847 50.4931
CA 26.6778 33.4454 72.0274
CA 22.2785 38.9318 45.1783
CA 17.6506 14.4994 84.2716
CA 28.4543 33.827 64.1592
CA 12.8415 26.3957 48.0226
CA 9.38509 26.9554 65.1392
CA 33.871 25.8178 48.0071
CA 19.4724 8.80043 51.2562
CA -2.43024 23.8551 17.7818
CA 16.4815 28.4651 53.9207
CA 10.5493 27.1789 47.4624
CA -10.3681 25.027 32.9803
CA 26.0916 0.554136 47.2726
