489

CA 7.03853 16.9873 43.5676
CA -4.1931 33.5274 20.0057
CA 35.7097 27.134 54.2176
CA 20.872 17.1279 73.4865
CA 15.7328 37.8534 89.9609
CA -3.98888 36.4838 26.9572
CA 13.5475 21.481 36.7902
CA 13.4972 15.2281 74.7745
CA 5.06182 27.4955 46.5529
CA 21.5554 18.1466 84.9949
CA -15.8498 31.7689 16.1153
CA 4.71688 0.669674 67.5641
CA 39.4822 27.2758 58.8933
CA 16.8607 15.649 63.2117
CA 36.3076 35.7205 62.4202
CA -6.38092 34.8753 40.4934
CA 10.0293 36.1975 55.6168
CA -14.0824 39.473 20.2499
CA 3.99007 -8.74673 56.8949
CA 31.7227 43.8179 46.1962
CA -5.62639 28.5131 52.4665
CA -10.9088 30.3231 43.3177
CA -0.272419 32.0016 85.3806
CA 38.3122 25.7427 66.1038
CA 12.1574 17.6798 37.1981
CA 41.02 29.2198 59.2323
CA 17.1359 35.8962 87.4476
CA -2.27591 36.5305 67.122
CA -14.5247 23.4731 54.5248
CA 13.9989 20.7297 64.9301
CA -1.29566 29.7973 39.1179
CA 18.1782 29.9859 48.6383
CA 13.1001 24.6034 50.3615
CA 18.7933 10.7863 85.3992
CA 7.71007 28.591 78.8907
CA 17.5885 8.67209 50.9359
CA 2.19334 26.5857 44.6602
CA 46.2938 22.3147 64.8883
CA -13.8591 29.8145 57.6662
CA 6.44494 30.1682 85.9404
CA 19.1779 -1.59553 47.251
CA 38.0747 19.2938 64.8542
CA 10.9411 36.6298 68.3231
CA 29.6895 21.0563 58.3701
CA -5.47627 27.5329 16.3402
CA 8.21233 26.8316 63.4511
CA -0.557648 17.8429 85.4711
CA -7.32092 22.6827 12.8244
CA 12.3686 40.3684 80.1708
CA 8.04365 25.0182 60.3083
CA 28.739 20.2588 65.5388
CA 14.3232 9.97524 55.7635
CA -14.4999 26.1929 52.184
CA -12.6016 34.5231 52.3866
CA 23.8004 9.23354 36.183
CA 34.2794 35.3217 63.1152
CA 4.3735 15.664 85.9848
CA 2.07929 21.0316 86.1266
CA 18.1352 23.3793 49.5939
CA 34.2671 30.4455 60.5933
CA -4.91229 11.124 34.2065
CA 17.7314 30.6323 56.4727
CA 4.57708 19.0985 41.3066
CA 22.9663 15.8311 87.5995
CA 36.7023 23.925 58.4611
CA 43.042 18.3783 61.1419
CA 31.1306 22.3262 62.7599
CA 22.0441 23.8861 40.9633
CA -6.24711 28.3489 18.7102
CA 20.2802 25.5331 59.5667
CA 5.79715 17.9517 72.8799
CA -8.5849 27.2223 13.0573
CA 31.9586 20.2658 55.4128
CA 22.3691 27.3058 53.9918
CA 19.0697 42.3507 55.2405
CA 23.4396 45.5146 54.9936
CA 13.9549 13.0977 47.3189
CA 22.1796 21.9457 87.4892
CA 16.3647 27.1179 67.0152
CA -6.93325 30.8676 22.7445
CA -10.0246 9.72168 53.2217
CA 15.9314 22.4177 45.1967
CA 37.2383 21.6213 66.7098
CA 30.9526 32.7749 64.3561
CA 33.1835 20.9512 64.4084
CA 36.0966 13.0981 53.7247
CA 8.00572 -6.55568 60.5868
CA 21.6045 18.9281 80.9693
CA 5.75189 31.3172 49.2556
CA 4.34799 16.6992 62.874
CA 19.8598 18.8742 77.5815
CA 19.1313 10.7937 47.5022
CA 27.7527 32.3944 55.3597
CA 8.706 14.8016 40.0915
CA 8.97166 5.68789 57.7356
CA 1.39539 27.8496 28.6641
CA 26.9285 41.9466 48.4289
CA 12.0228 23.2288 46.5753
CA 38.4654 17.005 62.9698
CA -7.94623 19.9478 46.0019
CA 18.7518 21.0683 74.5468
CA -5.66597 27.8023 88.5088
CA 9.64458 36.5858 52.5821
CA 5.84585 24.0488 42.5827
CA 37.8357 16.6069 56.2512
CA 3.13478 9.44489 51.624
CA 24.4331 38.7616 47.2807
CA 3.24863 31.7666 38.0576
CA 15.4709 29.09 49.4214
CA 26.4038 41.0609 44.8165
CA 26.5342 20.9019 59.5795
CA -10.3349 33.0185 52.7731
CA -4.65165 19.7333 16.1355
CA -8.97379 22.6494 14.0543
CA 14.4898 10.6721 83.2722
CA 1.96695 -6.75828 69.8318
CA 12.3703 32.3451 58.0027
CA 23.8449 24.3116 41.5266
CA -5.13527 31.146 83.0421
CA 21.6145 18.6003 89.4857
CA 9.68856 18.2674 70.3466
CA 28.3784 31.4163 60.9909
CA -11.7591 36.4177 16.7496
CA 28.2095 17.0078 86.985
CA 6.34424 -7.1641 58.9073
CA 31.1169 32.27 49.2707
CA -8.14201 27.2787 29.313
CA 20.8254 27.9817 43.1365
CA 36.2415 27.4162 67.9835
CA 15.7624 35.0223 83.0675
CA -13.2946 32.0191 16.405
CA 0.0585403 25.994 26.5353
CA -4.27557 27.6863 23.6043
CA -12.2519 27.7028 17.6255
CA 17.0623 37.9887 63.6612
CA 2.98519 33.3587 77.6915
CA 4.65565 3.54281 72.3161
CA 9.57581 15.9356 68.2424
CA 24.3328 24.0984 71.6063
CA -5.2277 29.2179 49.52
CA 18.2902 37.2856 55.3547
CA 21.0144 12.8829 35.1448
CA 2.82565 16.4951 83.6265
CA 25.2903 24.2332 57.5541
CA 18.9478 31.527 53.4896
CA 7.86981 9.02748 50.9743
CA 5.69153 35.5035 60.3086
CA 8.71397 14.3746 75.5686
CA 11.693 12.883 36.8141
CA 27.3422 12.1272 57.3718
CA 7.48868 23.3535 67.6688
CA -4.32539 23.6932 80.1747
CA 24.2309 46.001 43.6404
CA -11.6169 28.5498 55.4341
CA 23.8605 38.9347 55.6568
CA 15.6711 39.2277 54.0112
CA 7.38228 20.0819 36.077
CA 37.454 14.4402 59.7319
CA -13.14 39.7611 18.6361
CA -15.4748 37.739 17.9524
CA 3.60557 27.3472 75.8987
CA 2.21132 35.9246 85.8437
CA 9.19804 26.1968 62.0259
CA -9.3894 37.2004 49.1142
CA -12.7162 41.1642 19.7225
CA -8.5548 26.6023 32.5584
CA 23.4402 5.5506 41.1994
CA -3.30283 23.4545 53.5629
CA 46.4802 23.9141 62.594
CA 5.73356 16.075 42.0009
CA 0.453425 29.5274 56.2814
CA 43.3247 33.8699 57.8973
CA 16.7776 5.1875 50.9929
CA 21.2791 23.748 35.5309
CA -0.317795 30.5124 34.6186
CA -6.21339 11.2317 60.6584
CA 3.31824 13.3306 64.3007
CA 2.90645 37.6356 63.0372
CA -10.6021 28.467 52.6701
CA -8.71874 30.5238 88.7266
CA 18.845 -0.101911 52.1193
CA -5.23134 31.8999 44.8328
CA 28.6807 14.725 39.799
CA 22.6169 12.4248 55.4801
CA 7.21895 13.0823 69.6055
CA 5.93008 25.6679 80.9198
CA 13.6187 32.6685 68.4475
CA -8.04042 31.7903 16.2336
CA 4.36739 18.288 46.234
CA 27.0596 0.31559 55.2734
CA 4.13999 35.4253 84.9258
CA 11.3981 17.6513 81.9825
CA 13.6814 39.878 82.7643
CA -1.10911 15.5166 33.635
CA 39.4895 37.2188 60.9145
CA 12.5628 10.7724 31.6707
CA 15.5672 4.75244 40.6034
CA 10.6558 27.006 60.0524
CA 6.61399 25.5589 77.3557
CA 23.9591 16.125 53.9163
CA 15.6342 10.3851 60.6316
CA 14.7201 5.94069 39.3763
CA 5.73537 28.6581 30.9505
CA 30.4471 10.2159 54.9707
CA 21.6995 19.1473 43.9206
CA 39.423 35.6455 53.2667
CA -2.28824 8.56852 33.3507
CA 27.9201 7.29777 57.2394
CA 4.38978 26.4706 43.9013
CA -2.41625 28.6359 16.3053
CA -0.471987 17.0109 22.7327
CA 12.7683 31.0258 71.8824
CA -3.85695 7.34441 59.8738
CA -2.37143 12.161 37.9843
CA -5.84958 31.9507 24.093
CA 2.29108 18.4214 41.9924
CA -17.4082 37.3993 20.0409
CA 40.2346 26.9523 62.6671
CA 2.06868 36.7575 57.8099
CA 15.8003 42.8098 55.2797
CA 10.0601 24.0631 82.6602
CA 19.0106 39.896 54.9692
CA -7.33822 13.0129 64.2293
CA 6.25124 33.4476 50.0803
CA 27.8452 10.7741 59.6717
CA -5.70126 29.0558 44.1077
CA 10.5955 5.10617 44.4928
CA 22.0912 22.1189 57.3946
CA 13.034 22.8638 39.105
CA 4.68384 24.0984 80.6503
CA 28.6443 15.9734 42.2887
CA 26.6327 26.0796 69.0308
CA -5.64139 10.187 55.6647
CA 1.26794 34.9937 59.4461
CA 17.7476 17.7163 74.178
CA 5.31669 -6.33955 57.4207
CA 8.81501 34.515 79.5608
CA -1.53522 26.8816 79.9649
CA 5.19845 14.069 65.1141
CA 8.01682 28.2285 68.2268
CA -4.1896 12.0599 60.4217
CA 17.7832 12.762 44.5837
CA 0.615514 23.4989 25.6699
CA 25.8355 13.4483 56.9166
CA -4.65437 32.0401 87.8011
CA -9.12044 24.3169 49.1003
CA 14.9952 17.8136 65.198
CA 8.23648 12.8716 66.1971
CA 4.9009 21.134 33.8186
CA 27.9775 -2.16535 61.3257
CA 15.2639 17.7341 79.2011
CA 21.7011 25.6797 50.2432
CA 18.9095 10.4601 39.0938
CA 44.2391 20.8413 62.0951
CA 4.18028 33.0835 86.2675
CA 30.5989 20.6825 65.4776
CA 8.3647 40.4885 78.6405
CA -4.93563 23.5148 51.9708
CA 22.5584 23.3563 61.0977
CA -3.78589 31.7686 82.0253
CA 31.4262 16.2339 42.6757
CA 19.61 35.8211 50.1193
CA -6.10291 28.8848 24.7377
CA 15.9276 5.49434 52.9581
CA -3.16552 18.1031 89.2252
CA 3.4319 31.4671 36.1019
CA 8.56859 2.91547 56.171
CA 28.8968 21.9261 63.562
CA 27.7883 -4.20977 56.9605
CA 9.70553 24.9049 57.5302
CA 25.4763 40.4991 58.041
CA 25.8109 29.7334 54.943
CA -13.7273 27.0273 57.9101
CA 20.5349 15.2197 86.8527
CA 32.8496 19.6996 57.3951
CA 31.8338 28.8313 51.4044
CA 22.9771 35.7526 50.2839
CA 24.4375 9.43788 41.0677
CA 11.2419 24.1329 38.6306
CA 18.1336 6.92454 53.0944
CA 12.625 -5.95274 63.3837
CA 36.7512 31.9769 64.0336
CA 27.3806 29.2048 67.0115
CA 32.6473 32.3521 50.5061
CA 5.44125 26.8927 78.6681
CA 22.4593 28.0842 41.3098
CA 24.4402 17.0621 34.0076
CA 1.6639 36.4255 63.6373
CA 3.12392 18.5345 37.2869
CA 21.0312 39.3725 61.4633
CA 18.0161 16.5506 91.2373
CA -13.3382 27.9733 20.8652
CA 18.0856 26.5773 39.77
CA 11.2175 31.5296 68.6552
CA 9.37056 8.0139 55.1358
CA 32.6697 28.2897 60.2378
CA 21.5802 1.19915 55.0655
CA 15.2276 40.9429 80.8959
CA 8.19205 11.5348 50.96
CA 16.244 15.8076 35.849
CA -3.68951 32.1122 26.2988
CA 4.44185 11.6 51.1566
CA 33.0431 19.2792 42.9445
CA -3.66931 21.8743 30.0883
CA 12.7755 18.8101 34.7139
CA 19.2305 22.3257 50.8771
CA -4.39205 15.8171 51.9609
CA -4.67474 15.21 50.2434
CA 13.3036 9.97525 35.2255
CA -3.53908 20.3265 20.8622
CA 2.46833 18.0107 47.2876
CA 23.2884 24.9734 48.3945
CA 27.8329 34.4938 47.8652
CA 4.20194 22.3506 37.1693
CA 17.1774 20.4501 56.1147
CA 19.2317 14.508 44.5238
CA 17.2729 21.7442 32.0707
CA -4.08704 34.0203 16.6376
CA 8.55177 -8.93087 65.5144
CA 4.35074 30.5355 68.7058
CA 37.1754 38.3121 61.6693
CA 7.29088 26.5366 89.3769
CA 14.1816 2.63702 40.2671
CA 2.36863 31.0731 33.9891
CA 19.729 5.94559 53.2783
CA 13.768 21.1212 68.2942
CA 1.47294 27.4588 77.7918
CA -0.198246 -9.65154 59.6842
CA 6.97031 15.5241 46.7823
CA -2.62688 20.7896 83.7807
CA 27.9555 31.9575 49.2588
CA -6.87461 32.4744 18.6607
CA -2.82075 31.8392 52.7127
CA 4.26255 17.02 35.8763
CA 5.34102 -3.85475 67.6758
CA 1.50233 14.0474 45.5229
CA 6.17062 19.6249 64.4604
CA -5.1411 24.748 54.8267
CA 30.5022 24.8004 50.5378
CA -3.54657 10.9896 30.6258
CA 12.679 0.525792 52.6032
CA 14.1848 3.96425 43.6471
CA 14.127 20.5266 49.0942
CA 20.5625 34.9152 60.5561
CA 11.8212 13.0342 72.3077
CA -3.53656 25.3212 53.2723
CA 13.0215 20.0921 82.5277
CA -11.9411 30.2869 17.1523
CA 12.3474 28.8845 75.5382
CA 2.56131 33.6626 38.985
CA 20.6274 7.55879 52.7386
CA 22.8409 15.8282 85.1058
CA 1.28949 33.958 51.0718
CA 34.2111 16.6919 55.3965
CA -4.13715 33.785 43.0277
CA -16.7284 26.8017 85.7785
CA 33.3054 25.2456 50.3754
CA 15.602 11.0754 85.0737
CA -8.03961 34.0644 17.2878
CA 2.69228 31.8152 51.3708
CA -11.3128 33.9565 17.1959
CA 18.0177 2.86218 45.6728
CA 19.3731 24.4369 83.6991
CA 17.6153 15.1225 43.9886
CA -5.86787 24.1317 14.8728
CA -13.7188 31.7835 52.1367
CA 40.4865 15.8831 62.5964
CA 19.8546 31.9395 46.9824
CA 10.0732 28.0799 75.9664
CA 28.9399 17.1856 56.5421
CA -0.0220833 28.5996 39.7908
CA 9.8594 36.462 80.6167
CA 40.4803 34.0631 54.3392
CA -7.16347 18.4343 48.1966
CA 16.7069 26.1101 54.551
CA 13.266 17.5194 38.8786
CA 10.0972 22.4506 69.0736
CA -13.586 26.0814 83.1956
CA 35.3088 17.9203 56.7941
CA -3.18208 14.7799 53.306
CA 3.6032 27.2512 66.5179
CA 18.9941 21.5715 83.7112
CA 20.2135 23.5593 41.4514
CA 6.5914 19.4453 74.692
CA 1.88635 31.6459 70.9251
CA 10.5206 32.5789 62.5834
CA 14.4645 20.1867 66.5843
CA -5.12025 36.7553 55.4172
CA -5.56521 23.1074 16.5057
CA 37.5228 14.4167 61.6935
CA -1.62734 33.3422 42.6481
CA 20.0964 34.6982 84.6056
CA 21.7593 16.8172 77.8829
CA 10.2655 19.1721 83.7862
CA -6.2455 21.5424 11.5077
CA 9.05082 13.4983 37.912
CA 36.5338 39.6711 52.5893
CA 14.9389 5.46255 56.1359
CA 5.45226 33.4261 63.6967
CA 11.4773 4.16013 52.8809
CA 41.7652 25.488 66.861
CA 25.9861 11.0512 54.968
CA 7.7762 21.1813 73.5404
CA 25.463 42.768 57.8639
CA 26.9966 14.6805 38.3726
CA 25.0341 41.5481 47.2067
CA -0.560517 14.4644 70.6165
CA 40.7557 17.6771 64.6834
CA 5.38555 -1.62737 56.4263
CA -3.0785 24.3523 31.85
CA -17.5713 34.4779 17.6262
CA 22.6938 11.0458 42.3761
CA -15.4317 28.8078 15.9493
CA 4.85846 28.2675 42.3403
CA 15.4131 29.8443 72.3312
CA 2.04831 5.62215 49.9201
CA -10.8679 26.6461 51.4178
CA 4.36893 -9.23622 58.9554
CA 18.8818 19.3917 55.9527
CA 21.6295 19.5658 71.7497
CA -1.68161 20.2869 44.6804
CA 28.2276 19.9042 53.4904
CA -10.1898 27.5432 86.2726
CA 35.5491 34.3139 60.7453
CA 6.55491 11.5684 66.7336
CA 11.5467 21.3755 37.5336
CA 34.1581 29.8706 54.2435
CA 23.6523 3.98556 44.431
CA -0.89595 24.3138 24.2122
CA 13.2629 28.7785 62.9201
CA 24.1862 19.2162 84.2787
CA 18.0417 20.4396 61.982
CA 1.38463 10.2348 52.3887
CA 6.74026 31.9767 51.2155
CA -7.44538 23.2395 16.5162
CA -6.50409 9.94489 51.8066
CA 18.7175 14.0379 83.0126
CA -0.80457 12.568 65.3306
CA 6.21584 35.1931 80.1168
CA 10.0883 32.0216 48.9293
CA 11.2326 18.3484 52.4474
CA 5.66323 -3.04555 63.3619
CA -1.52102 -7.23299 48.3131
CA 37.553 14.0118 65.8154
CA 17.8472 1.58141 47.6693
CA 6.39768 35.1432 78.0505
CA 14.0782 15.0696 35.3945
CA 13.0738 29.2646 39.2333
CA 19.312 6.37486 45.0229
CA 36.8626 29.9674 53.3315
CA 21.9904 22.3355 42.4806
CA 27.6522 13.7795 83.8892
CA -3.3772 33.6213 39.7043
CA 7.16346 16.9337 74.8417
CA 17.6582 36.438 50.8894
CA 7.68531 34.4601 47.0213
CA 22.7683 37.034 48.6626
CA 19.3755 36.3427 88.8057
CA 27.8068 34.84 52.997
CA 11.2631 25.952 78.4294
CA 16.7571 22.1525 59.7383
CA 7.07108 31.2156 35.403
CA 1.60915 25.2724 79.1319
CA 0.62686 34.4981 55.178
CA -4.6214 -7.54994 51.2803
CA -3.77548 -11.1505 55.6078
CA -0.159307 31.5471 80.5362
CA -2.63389 32.7389 50.2155
CA 26.6087 23.7211 54.3437
CA -3.29247 19.8263 52.084
CA 7.66409 23.2586 46.5883
CA 15.8175 27.3138 70.5605
CA 13.3195 30.7475 47.8813
CA 9.68383 -6.47373 59.226
CA 3.93366 31.6935 32.6058
CA 7.96302 37.4405 79.9388
CA 39.2924 24.3765 63.2652
CA -0.959106 19.4351 29.4402
CA 10.157 16.1581 70.5561
CA 0.326962 26.9699 80.5652
CA 43.8199 22.1666 64.5685
CA 39.8106 24.1477 69.8847
CA -2.25901 34.7361 50.3353
CA 9.53755 -9.80054 68.6185
CA 11.2729 -4.4993 60.2412
CA 12.4855 38.5088 83.1107
CA -9.77693 36.1385 52.1365
CA 13.8067 20.581 60.0714
CA 4.5494 23.9702 48.1473
