489

CA 0.22685 23.2527 63.5716
CA -3.65555 24.0079 22.2534
CA 15.9733 22.7797 40.0471
CA -4.22675 32.4237 46.561
CA -0.707308 31.1657 17.233
CA 14.7924 -3.32404 50.7514
CA 8.90104 3.38033 44.8898
CA -5.57156 6.97535 25.877
CA 2.70123 18.0568 69.8029
CA 24.4965 11.606 85.2999
CA 17.6838 9.71095 53.1826
CA 3.43934 15.1018 47.8467
CA -8.30845 5.19416 25.3164
CA -22.1942 7.03223 25.2166
CA 27.9868 -20.6826 62.6093
CA 14.6899 9.56967 72.5153
CA 18.0047 -2.7288 58.2812
CA 17.9996 16.9238 42.7335
CA -4.02541 21.131 51.4815
CA 11.7447 5.62228 62.6392
CA -7.77075 33.3133 44.7857
CA 10.3314 5.02323 24.4463
CA 13.2422 30.2595 62.7098
CA -5.43424 23.7832 41.6966
CA 13.3567 9.31906 48.0819
CA 13.7416 21.8358 59.12
CA -7.76207 25.7913 45.4301
CA 21.372 15.3442 75.1997
CA -4.03793 28.7054 63.3501
CA 14.5993 -9.03708 52.2353
CA 11.4205 9.28349 32.6088
CA 22.6005 -12.2087 62.7263
CA 23.6285 -9.38456 44.4015
CA 3.38518 19.0941 61.3285
CA -2.0475 13.1708 45.6623
CA 13.3614 -11.7887 66.0522
CA 2.23852 -13.4508 57.2218
CA 17.2493 -11.5775 60.0559
CA 16.6203 -12.3822 64.2352
CA 21.1999 13.1768 75.2832
CA 3.30982 12.2624 57.2599
CA 14.6665 -7.56955 42.8792
CA 19.0284 9.26489 67.0004
CA 0.0891503 23.3796 37.9276
CA 11.1306 13.7898 63.5029
CA 0.28234 11.8497 46.8316
CA 10.442 14.7829 56.5215
CA 16.0611 -10.9657 62.1163
CA 17.0932 29.6205 69.6204
CA -3.37754 11.7081 48.8921
CA 9.52541 -28.0011 66.5695
CA -1.79125 1.18035 42.014
CA -2.96435 27.5627 21.86
CA 0.484914 5.15504 53.3658
CA 19.319 18.9671 60.791
CA -20.4774 -9.51919 33.0688
CA 16.143 25.8032 63.5886
CA 6.6052 31.7984 60.3657
CA 15.0487 -9.70477 63.1536
CA 2.20178 18.7166 64.7811
CA -4.30615 6.5089 52.0895
CA 14.9386 25.2467 33.9685
CA 0.953202 15.4669 61.3982
CA -2.39238 24.8604 15.0798
CA 2.52804 10.5229 59.0587
CA 15.1465 13.7398 63.8755
CA 21.9973 12.6003 78.4346
CA 18.5345 -4.89624 38.6682
CA -5.58394 37.2961 21.1241
CA 15.711 16.0714 33.8001
CA 20.8464 18.0075 66.2288
CA 31.4102 5.3445 43.4259
CA -3.7715 18.8638 52.8863
CA 19.2531 -5.24643 57.6034
CA 20.901 -0.0320465 52.5933
CA 11.9404 16.3049 54.6543
CA -7.21932 10.0628 54.1039
CA 7.85115 22.0914 27.7711
CA 15.3873 -10.2748 69.0845
CA 9.6979 5.6327 63.3631
CA 11.2134 20.6373 22.7766
CA -20.9282 6.44288 26.5419
CA 3.13861 22.6711 62.3557
CA 22.9692 19.7832 63.2686
CA 15.4988 15.8564 30.7731
CA -2.53118 34.6268 28.755
CA -6.19248 7.49652 49.6068
CA 16.832 -27.545 61.2423
CA 9.12217 17.3 36.3613
CA 13.2811 30.1091 29.8274
CA 26.4874 19.2482 78.4673
CA 3.2687 24.2956 27.9665
CA 18.7189 3.54526 52.3692
CA -1.59775 -2.68998 43.9236
CA 14.3272 -30.119 62.784
CA 1.71752 29.775 67.4354
CA 22.2688 16.3232 77.7803
CA -4.14547 23.1363 46.2436
CA 7.40599 27.6874 64.9653
CA 14.0563 -27.46 64.6857
CA 13.7754 19.1058 72.3776
CA 16.4992 4.4979 52.9193
CA -13.1972 -18.0689 60.8751
CA 18.6404 31.3746 69.0376
CA 13.4392 22.8332 69.4013
CA 9.7712 5.82671 22.074
CA 2.87951 9.03727 57.7949
CA -14.562 33.832 31.9386
CA 11.4137 15.8523 50.1522
CA 8.83688 20.5919 22.2384
CA -7.78784 7.51009 48.7397
CA 27.1014 7.58705 42.7707
CA 7.7118 8.94385 52.3437
CA -3.58874 9.0057 43.2165
CA 22.4601 24.3074 61.144
CA 26.7537 -21.563 65.1913
CA 22.0447 11.5452 24.2081
CA 15.1231 23.5919 53.7098
CA 32.0059 -26.3829 69.3791
CA 23.1668 13.459 63.9737
CA -8.43702 28.3225 22.0237
CA -0.334198 12.8744 54.1158
CA 6.12841 20.6591 22.5472
CA 4.08532 32.5425 21.5835
CA 11.1853 15.8999 58.332
CA -10.2553 33.9398 37.207
CA 3.46388 32.1832 18.4953
CA 28.4305 10.3745 39.3849
CA -2.08528 22.5212 70.8334
CA 12.5416 27.5559 60.5168
CA 16.0632 26.5214 69.1417
CA -3.79012 11.5413 66.8404
CA -3.24532 21.7278 59.7263
CA -20.5199 -12.6035 32.4275
CA -1.31792 20.1277 62.9405
CA 18.1017 7.32164 45.245
CA 14.8239 3.35186 27.3179
CA 6.99584 3.59476 27.8046
CA 20.8577 -9.23305 37.4112
CA 21.4507 17.6353 64.0269
CA -3.84749 22.409 62.4934
CA 6.16868 4.0082 36.4411
CA -5.75193 8.14525 64.2364
CA -5.28666 20.5856 47.5339
CA 9.48597 15.8728 65.0528
CA -4.4065 10.0084 41.5157
CA 7.83616 2.88452 58.6743
CA 24.0851 32.8367 67.6324
CA 7.43123 20.1016 69.6299
CA 21.6371 23.1367 32.4994
CA 22.1673 3.54959 55.5323
CA 2.80116 5.21289 35.3404
CA 16.9842 5.0093 34.6307
CA 11.69 19.3708 65.9733
CA -10.2086 -1.53059 47.6899
CA 30.2645 7.7786 41.2064
CA 22.0393 31.8136 66.4022
CA 13.9701 14.8078 62.4701
CA -0.373822 -16.9201 73.4906
CA -0.238463 11.4437 53.011
CA 5.01072 4.19283 52.1032
CA 8.25575 -31.6998 67.468
CA 13.9817 24.3449 57.2559
CA -0.295652 -3.463 33.1246
CA -4.57224 34.9943 48.1456
CA 27.0102 22.7992 56.4943
CA 11.206 -7.93056 67.4261
CA 4.54471 26.421 26.1916
CA 6.46145 -35.1707 51.9576
CA -1.69538 26.6958 64.5123
CA 10.8777 9.33059 25.9535
CA 10.8383 20.3873 69.5104
CA 6.66781 24.7617 25.369
CA -4.39149 8.41279 55.3281
CA -22.0559 20.8921 75.385
CA 25.2654 -20.4742 69.9027
CA -2.68635 17.0904 61.9357
CA 17.7926 1.79095 56.7546
CA 17.5223 11.8018 44.7943
CA 10.1597 24.2302 26.3786
CA -12.1183 34.4922 30.9244
CA -3.18975 -6.35002 43.1189
CA -3.37688 36.5255 25.3247
CA 11.3575 7.08065 25.1816
CA 16.9594 5.81432 57.7128
CA 18.8552 13.1305 67.7706
CA 5.2885 17.4696 48.0982
CA 18.2497 20.9715 77.8308
CA 21.1961 -13.5231 42.4653
CA -0.185199 -12.221 44.3531
CA 17.1599 2.58247 55.1192
CA 14.036 17.4119 59.8501
CA 13.8008 -25.1818 46.91
CA 4.66924 21.9826 29.7958
CA 18.0671 26.1675 35.3443
CA 22.1616 -5.22759 48.2553
CA 7.58037 13.2518 57.4272
CA 3.12843 -16.1478 40.8021
CA 6.14276 16.2022 36.4147
CA 9.38278 17.577 23.5609
CA 15.3212 0.0708957 51.9977
CA -5.24808 10.5896 49.412
CA 16.6384 18.9187 33.5684
CA 15.4829 19.8782 26.8508
CA 2.56016 20.354 58.7144
CA 5.49121 -5.40736 59.1685
CA 9.98556 25.9646 27.409
CA 32.0621 10.2814 41.1278
CA 6.76252 5.88124 27.3704
CA -0.545535 29.004 18.8882
CA -20.5855 8.96406 24.2489
CA -5.44988 17.097 63.4068
CA -3.43254 23.0556 15.1264
CA 29.6099 13.1445 20.8542
CA 25.3566 -3.25448 56.1143
CA 33.8039 8.14845 44.0497
CA 10.5948 -7.41705 64.0704
CA 14.9154 -7.41253 47.8975
CA 13.6207 19.4504 27.1013
CA 11.5042 34.7413 60.4762
CA 10.7645 17.6627 35.2534
CA 15.2058 19.7087 55.4005
CA -6.4989 29.6473 45.254
CA -8.4345 32.0141 19.4167
CA -0.6312 20.9354 60.8254
CA 5.2205 32.62 17.593
CA 13.6516 -1.42 49.7965
CA 18.9003 -4.5875 42.2851
CA 25.9963 -10.7871 39.4888
CA 31.3307 10.9569 37.976
CA 4.58558 18.1544 58.0645
CA 1.15578 21.3254 55.2308
CA 14.4444 10.3214 68.7711
CA 3.40568 2.14755 58.1779
CA -0.682001 2.7383 47.6213
CA -5.56874 22.9273 20.7792
CA -17.9572 0.364574 33.0252
CA 6.37469 22.5874 25.2283
CA 14.9157 10.0102 74.6272
CA 15.9197 11.8353 78.5478
CA -25.2769 6.27658 22.9354
CA -9.71169 25.2147 61.6248
CA 18.567 9.42586 43.5765
CA 12.9975 13.2509 48.4409
CA 13.5869 21.8259 26.2369
CA -6.92004 27.5715 17.5076
CA -9.65424 -26.0671 43.3537
CA 20.7425 -14.5586 61.3627
CA 11.0726 12.4725 27.8491
CA -1.57953 33.1621 67.305
CA 19.7104 8.23382 52.8003
CA 2.74033 21.1426 28.2366
CA 1.86534 2.52119 47.1087
CA 14.5183 24.3143 66.2575
CA -0.0373429 -12.274 47.8123
CA 19.5745 37.3911 60.8617
CA 24.5173 11.9556 78.0445
CA 30.2011 11.1575 39.682
CA -4.95594 8.17965 62.3763
CA 7.51896 -6.39445 58.8787
CA 2.35069 29.0854 20.5864
CA 17.5393 -0.0227627 55.4832
CA -9.76651 15.5932 52.025
CA 4.3041 15.9382 44.8999
CA 16.8189 -11.5929 43.3364
CA -1.41419 15.4533 61.3249
CA -1.1845 22.5559 35.6114
CA 12.6854 15.4669 24.4046
CA 12.3148 28.0777 26.835
CA 14.3854 1.47978 55.2618
CA -10.9918 30.894 39.3335
CA 15.7532 21.8615 30.9873
CA 14.8118 -12.1254 43.3546
CA 6.68934 29.2706 64.3952
CA 15.0409 12.0905 47.4838
CA 3.82205 -15.6249 36.3525
CA -20.3143 2.53912 19.8217
CA -5.81516 25.8519 43.7875
CA 20.2071 13.2664 70.5014
CA -24.1879 6.64106 25.7403
CA 0.272404 -5.91312 30.9293
CA 20.9117 27.5076 72.3766
CA -1.32853 11.4615 48.5677
CA 15.7636 -12.4191 38.5789
CA 22.2738 -19.5369 53.4222
CA 12.9689 -29.6546 46.4424
CA -5.37152 19.3687 46.1413
CA -8.03823 3.05311 48.7321
CA -2.32029 7.4361 58.0973
CA 11.5505 8.38985 50.8664
CA -5.3679 11.5753 54.9389
CA 14.7558 21.6404 38.3921
CA 12.2145 15.2735 69.0258
CA -6.65375 13.5787 52.9685
CA -12.6518 6.28081 33.9148
CA 19.2463 -15.079 65.1809
CA 7.7836 23.8791 28.295
CA 20.0767 13.9333 76.9774
CA 6.12381 32.4614 22.5453
CA 14.7422 -5.46765 40.0518
CA 8.90819 20.8492 60.8794
CA 19.1403 15.7266 44.8649
CA 16.9625 -4.05463 53.8145
CA 11.5346 22.0544 60.509
CA 3.71998 -13.3025 55.4041
CA -1.25834 21.8828 46.8451
CA -8.07348 30.5561 47.4411
CA 12.5788 9.011 36.2886
CA 6.44641 28.9633 17.248
CA 14.4638 17.1969 70.8247
CA -20.6865 1.58059 65.8389
CA 14.113 33.194 65.5321
CA -8.03427 22.8682 63.7185
CA 14.2852 -13.3934 69.029
CA 12.379 22.7263 34.4129
CA 7.26433 10.2729 37.6403
CA -10.304 26.5243 44.9357
CA -2.72038 21.517 17.1104
CA -1.61865 9.8113 58.1835
CA 21.2141 -13.7024 63.9085
CA 22.8031 19.7392 47.9565
CA -9.58274 31.8276 40.828
CA -1.44922 10.7994 55.5235
CA 11.4817 -9.85394 66.1026
CA 12.373 26.7752 67.3311
CA -20.9448 3.93236 22.4841
CA 18.2726 23.7812 54.6051
CA 3.46083 28.6539 18.0312
CA -1.12348 -5.59486 53.3746
CA 17.7978 6.26957 33.0978
CA 2.55054 15.5964 59.3979
CA 9.22558 7.42348 27.6715
CA -23.9846 1.95739 24.3894
CA -4.98146 28.0914 46.0918
CA 8.04771 11.5436 18.129
CA 13.8632 19.6129 63.2032
CA 14.6299 37.7174 60.9744
CA -10.4955 31.2318 27.8434
CA 23.7881 22.1078 62.5535
CA -23.0856 1.86806 70.186
CA -22.072 5.43472 23.5594
CA -0.619616 22.7819 59.7652
CA 4.26309 31.0776 14.1707
CA 9.69045 22.9136 72.5733
CA 14.0969 13.8148 67.6753
CA -10.2103 36.643 35.7684
CA 16.8402 -33.5437 59.9772
CA 0.290567 26.3384 65.058
CA 12.0201 13.1779 67.7407
CA -1.14161 24.4228 64.0047
CA -0.199541 29.0291 68.2395
CA 5.3647 13.231 19.9421
CA 21.2207 0.138837 46.2342
CA 3.91929 20.6702 25.4298
CA 6.44925 16.6804 70.3082
CA 18.6097 17.9931 47.7469
CA 22.8021 -15.7407 68.7114
CA 11.2892 17.2594 30.3764
CA 20.7282 12.5915 83.1224
CA -2.03435 20.6108 52.8535
CA -13.0713 25.9442 44.9374
CA 14.1842 5.49056 35.0767
CA 16.2672 14.6356 59.7193
CA -7.52008 25.9531 61.4046
CA 13.8202 11.6038 65.0891
CA 9.31505 15.2127 61.2443
CA -8.37349 13.8482 47.9908
CA 18.4411 5.39581 54.9711
CA 4.42609 33.7828 19.9487
CA 17.0673 -3.80219 48.653
CA -9.13228 6.55234 36.7819
CA -22.6549 1.33438 29.5295
CA -3.66816 16.791 48.1138
CA 24.839 -14.1352 64.5102
CA 19.3515 3.79796 28.8809
CA -1.45061 24.632 67.4166
CA 21.7763 23.6468 70.3949
CA 9.06921 28.3127 70.2241
CA -7.46532 6.15849 29.4212
CA 15.4553 -18.78 67.2794
CA 10.1115 5.36442 43.6738
CA 11.4502 18.1964 27.5727
CA 18.4972 14.4421 63.2129
CA 8.56995 5.16343 30.666
CA 26.0917 8.38596 84.8688
CA -3.02372 20.0646 61.8744
CA 1.25777 6.87459 50.6067
CA 1.68956 20.5208 23.1897
CA 4.99857 14.8878 59.0436
CA -2.69648 27.2862 17.9534
CA 28.8252 10.2597 42.2642
CA 11.2163 18.3637 61.5668
CA 18.1221 11.6533 66.2713
CA -0.772566 19.1926 65.1676
CA -19.7771 -20.4304 22.0964
CA 14.1173 5.64407 22.7624
CA 16.1007 7.9068 74.2982
CA 25.1068 -7.94002 54.1043
CA 15.5485 42.4218 64.6815
CA 8.87516 29.5901 73.9614
CA -0.286558 22.5465 19.4583
CA 8.88478 4.75344 53.1002
CA -17.968 -21.7369 24.269
CA 17.8504 0.861141 53.2263
CA 3.22945 6.67482 54.8881
CA 17.8188 -10.1923 64.4329
CA 17.1247 7.78901 28.2992
CA 12.931 22.1054 28.4234
CA 13.0644 18.9356 34.801
CA -6.44846 5.9632 52.2369
CA 9.58726 26.4572 64.0114
CA 4.88681 27.4528 66.5677
CA -0.303771 -10.0778 51.9457
CA 11.5579 18.0452 67.5768
CA -2.50266 31.0417 15.6617
CA 13.2463 8.08065 72.1087
CA 31.0899 8.444 38.8049
CA 29.9864 13.8449 25.3743
CA -4.12469 4.5465 51.3791
CA 9.6307 18.6078 29.3228
CA 16.3087 20.3814 39.6498
CA 10.4925 -7.92212 23.8743
CA 11.4949 14.9183 34.6161
CA 8.16396 0.117297 24.7919
CA -24.1777 -5.19042 24.4186
CA -25.8139 2.19868 23.4104
CA 1.02246 13.0495 59.2167
CA 24.8846 9.54859 45.9647
CA 22.6722 12.843 60.6991
CA 6.78855 -3.02875 58.4164
CA 22.1279 14.2123 79.7151
CA 17.8482 11.0139 59.5529
CA 35.9165 9.19631 41.0999
CA 9.44481 -1.11774 58.2496
CA 13.4906 -8.89487 57.5618
CA -1.55055 -16.3854 74.9525
CA 14.6442 12.0824 69.2969
CA 28.9274 -17.4662 64.514
CA 16.0745 21.4115 58.3983
CA -2.87028 -3.72711 47.9396
CA 15.0116 22.5322 43.8866
CA 3.33935 13.1744 46.8946
CA 0.55828 24.5507 61.1601
CA -20.0864 -3.62612 75.5024
CA 12.0563 -27.3261 65.899
CA 20.4551 13.3188 60.4309
CA 15.2365 16.6671 57.3619
CA 41.7494 9.91969 50.4906
CA 13.4351 -30.2983 65.333
CA -14.4269 33.7562 29.1992
CA 0.858799 31.6971 20.8015
CA 13.1694 25.9249 28.3938
CA 7.41962 18.6861 28.7786
CA -23.0537 5.26018 26.5251
CA 18.1267 13.998 43.6227
CA 1.55421 8.29714 55.688
CA -11.2669 35.257 34.8268
CA 21.1052 30.4675 71.8508
CA 15.2107 20.8395 35.9228
CA 20.9432 38.1865 58.6097
CA -7.75194 15.3986 50.6143
CA 9.70407 7.97439 44.1339
CA 10.4419 30.9529 27.3882
CA 19.4652 17.8194 35.4265
CA 15.7001 -11.0696 39.9098
CA -0.13883 26.7452 21.292
CA 18.1474 22.7669 34.045
CA 19.566 15.8854 67.3873
CA -1.91181 -23.8647 53.328
CA 7.21982 3.30047 40.147
CA 9.55007 37.7894 58.2611
CA 13.3045 -12.87 62.4733
CA 17.0457 25.5943 24.7196
CA 1.09756 29.5255 23.6567
CA -2.54061 29.9634 46.6367
CA 3.11006 4.65392 55.9866
CA 1.49218 13.5837 65.6017
CA -7.6095 15.4979 52.5047
CA -11.6917 28.162 17.0642
CA 16.0932 11.4788 63.7781
CA 24.5435 21.9429 58.6766
CA 18.5404 13.6854 59.3786
CA 15.0928 14.0036 37.709
CA 6.51309 7.07001 34.2049
CA 17.1809 21.8262 47.2593
CA 12.8479 24.2746 33.4624
CA 16.0748 8.94655 70.7103
CA 20.5078 11.1176 28.1101
CA 10.344 10.9539 61.4219
