489

CA -3.22585 0.98151 57.1725
CA 28.9428 24.8858 54.8393
CA 9.45357 11.9813 37.2594
CA 10.0597 19.9276 54.0154
CA 38.9383 16.5619 53.6575
CA -7.90744 25.2666 14.2729
CA 11.7312 34.1563 64.125
CA -15.7157 25.0816 57.4638
CA 7.38181 23.3866 78.0851
CA 14.1967 26.897 83.1626
CA -8.08662 21.1815 18.0011
CA 4.71688 0.669674 67.5641
CA 3.26334 12.3381 37.58
CA 5.44711 23.0401 35.5958
CA 28.6553 11.0241 55.7825
CA 2.50638 17.0682 40.6001
CA 21.2469 27.1028 51.358
CA 1.44188 21.9273 79.5393
CA 3.99007 -8.74673 56.8949
CA 3.76581 1.02205 59.1821
CA 11.4664 20.9474 47.3889
CA 10.5174 24.707 57.1789
CA -0.272419 32.0016 85.3806
CA 14.9596 24.7733 80.0009
CA 34.6884 32.2271 62.9061
CA 27.1613 48.8827 59.7354
CA 2.03341 31.9257 88.3401
CA 21.5554 21.0777 70.3823
CA 2.80552 24.5265 43.1004
CA 10.8926 30.2072 61.8678
CA 34.5728 22.912 63.98
CA 19.0134 17.8508 89.6145
CA 0.657773 -9.81269 56.2311
CA 23.1585 23.5723 89.1737
CA -8.73304 29.1259 30.4685
CA -7.65973 40.1637 28.3475
CA 2.46895 31.7199 55.0298
CA 3.74923 19.432 38.209
CA 24.0993 -2.60246 47.1482
CA 14.9692 17.2759 62.2885
CA 2.4828 29.373 47.1306
CA 10.1867 22.5961 43.7019
CA 17.773 7.16264 64.6671
CA 39.1033 31.5745 62.2118
CA -11.4356 24.1523 56.5678
CA 6.70421 7.95391 66.8704
CA 9.40005 16.8859 86.7287
CA 6.52816 4.94578 51.2289
CA 13.768 23.6192 69.8677
CA 12.128 18.7026 46.4545
CA 15.7157 15.6024 80.6036
CA -4.88067 35.9376 29.1516
CA 14.3507 34.6085 60.3408
CA 46.3161 38.4974 56.8535
CA 2.31534 37.8948 61.2156
CA 11.2053 37.6667 46.402
CA 40.567 30.6949 60.3341
CA 12.308 22.6772 47.5001
CA 33.8545 31.1989 42.1291
CA -5.53374 12.3421 35.8828
CA -0.930476 26.2743 18.0615
CA 5.84319 25.8815 90.9278
CA 40.0919 21.1765 65.452
CA 11.1007 14.0705 31.3039
CA 14.3839 32.1526 68.1753
CA 27.8151 10.8391 82.1774
CA 20.8153 11.6972 29.76
CA 8.09605 38.5076 47.4456
CA -11.3246 31.0543 55.0387
CA 35.97 22.4398 62.2797
CA -5.87641 2.81484 61.9387
CA 20.1506 6.44221 48.1031
CA 0.149403 4.46697 58.9249
CA 39.0839 13.8645 54.8955
CA 3.1898 18.4225 26.2566
CA 30.0791 30.2757 46.2178
CA -4.71551 30.4077 27.428
CA 3.18675 23.6355 90.7353
CA 26.0581 12.9711 69.5006
CA 21.7628 22.7247 51.5651
CA 37.5186 37.7149 64.8396
CA -11.774 36.8835 19.2186
CA 14.8657 34.3516 56.7454
CA 10.2551 27.782 82.0893
CA 5.11946 7.78515 58.5967
CA 7.11236 14.4898 38.9829
CA 8.00572 -6.55568 60.5868
CA 33.7444 13.5942 62.8325
CA 31.952 35.3332 43.3957
CA 32.2239 37.0005 63.0125
CA 22.378 1.55584 48.6082
CA 22.3049 16.8637 74.2938
CA 32.2127 34.5382 63.7566
CA 3.46305 31.9623 81.6962
CA 17.9012 14.9518 89.938
CA 21.6513 45.4039 58.5402
CA 37.1954 28.8855 39.2795
CA 5.59322 7.51566 40.371
CA 0.909014 3.18289 57.698
CA -14.7141 31.8488 16.0652
CA 11.0886 39.7535 54.0069
CA -13.8556 31.3777 54.5402
CA 15.1906 19.8916 48.5178
CA 15.2382 4.98412 41.9821
CA 2.9175 29.0499 74.3792
CA 41.6271 14.2034 51.5143
CA -7.96983 32.8655 51.9126
CA 2.68818 31.3552 35.7033
CA 24.4119 14.7757 65.4546
CA 10.4679 15.9861 41.2248
CA 14.0908 20.6438 77.3408
CA 22.6991 13.34 81.8561
CA 5.09728 31.8245 39.1535
CA 15.8547 18.7801 49.8153
CA 0.869048 -11.6194 57.7179
CA 34.4035 25.2069 64.2467
CA 26.4864 11.967 60.2144
CA 23.8449 24.3116 41.5266
CA 11.0461 41.423 49.6
CA 39.436 19.5975 56.2347
CA 19.3978 38.083 51.6236
CA -4.17674 29.7805 84.5792
CA 20.0511 27.2152 54.6948
CA 14.1621 15.0776 79.4276
CA 14.7696 14.6269 84.3692
CA 6.06477 29.9016 37.6477
CA -5.15764 3.64639 51.6015
CA 36.1556 15.7606 53.817
CA 3.85048 28.4392 70.3643
CA 2.2159 10.8152 42.0295
CA -10.1455 27.4378 47.5875
CA 18.556 21.6305 86.934
CA 14.5381 10.1115 46.2362
CA 25.4832 29.3917 48.1162
CA 32.8606 25.6453 38.3858
CA 12.6331 9.78068 28.6731
CA 1.28102 18.6732 35.1471
CA 12.9747 27.362 47.7794
CA 25.1259 30.2995 45.0766
CA 16.2995 20.4767 62.0132
CA 3.47968 -8.07008 60.2966
CA 28.3084 38.4133 55.1898
CA -0.653882 27.7259 83.8313
CA 4.29888 30.6242 40.3235
CA -0.785198 24.7855 85.7087
CA 20.2958 23.1397 43.7149
CA 29.5669 42.771 59.9762
CA 2.28264 34.3935 57.3467
CA -9.98452 31.3808 49.3633
CA 40.9381 29.1948 56.2955
CA -3.34757 22.9608 30.325
CA 34.2441 18.8712 56.8721
CA 14.0183 9.32134 48.6142
CA 19.3492 16.7131 38.5075
CA -14.4656 36.2747 19.2802
CA 3.55804 31.6366 26.9092
CA 38.7347 13.2413 58.3102
CA -0.530415 34.2682 33.5948
CA 7.4494 20.1211 60.4791
CA 14.0896 22.0629 87.4292
CA -13.4265 29.6666 19.8296
CA 20.44 11.1472 54.0068
CA 42.0248 13.3021 63.6408
CA -7.5082 -1.74007 54.9063
CA 8.76077 22.2893 65.0987
CA 11.9626 12.9423 58.2948
CA -4.85034 2.54165 54.4508
CA 7.07857 16.5366 63.179
CA 23.5514 40.6951 55.5479
CA 3.80318 21.9403 39.3593
CA 1.68173 27.6882 67.0325
CA 23.6954 18.1189 91.1549
CA -0.141209 6.03125 57.7216
CA 0.247849 22.0716 39.0328
CA 7.07714 31.1236 77.7045
CA 36.5723 30.9515 60.1397
CA 18.3278 15.4733 43.0652
CA -8.85341 23.6427 23.0109
CA -0.587682 1.15635 62.2881
CA 8.66787 33.3425 73.5655
CA 26.7517 18.2077 89.2109
CA 7.61255 16.2475 55.4865
CA 7.75942 23.2801 36.881
CA 6.47033 5.28648 71.3634
CA -15.9444 38.3177 17.7071
CA 20.2039 17.0662 52.266
CA -3.97656 30.1882 61.1915
CA -0.238856 24.6038 28.2643
CA 23.5844 39.8934 61.9292
CA 8.9764 13.3323 57.7361
CA 4.13999 35.4253 84.9258
CA 4.9805 32.5526 34.4948
CA -3.49305 33.1826 32.2807
CA -0.842644 27.155 29.4671
CA 22.1545 21.0655 45.1464
CA 12.5628 10.7724 31.6707
CA 6.32864 23.9456 38.4593
CA 0.835148 29.1463 36.4004
CA 12.578 24.886 69.0504
CA 14.619 25.1075 37.2999
CA 13.6036 17.7972 73.9343
CA 31.3408 25.3482 52.8545
CA 15.207 9.15397 51.3709
CA 9.44664 1.31598 59.4741
CA 5.62543 38.5079 81.4411
CA -4.05962 11.0482 33.1945
CA -6.05509 35.3868 54.6766
CA 0.300809 32.4027 49.1636
CA -10.5756 32.3985 53.6245
CA -2.41625 28.6359 16.3053
CA 7.24476 29.3001 34.7034
CA 15.7933 8.56915 56.8137
CA 10.9281 17.3376 36.0676
CA 9.3453 26.1742 65.3195
CA 17.8396 1.27108 45.5014
CA 35.723 30.4767 56.3009
CA 6.31582 13.5452 31.6325
CA 9.60708 17.0114 51.9116
CA 25.439 13.9451 68.0202
CA 7.14822 12.972 50.1974
CA 11.6343 6.2148 54.3299
CA 24.188 24.4585 79.8073
CA 14.326 38.9299 57.7289
CA 5.87912 10.9161 37.2299
CA 9.56196 15.8107 63.5855
CA -12.9263 33.0105 23.0743
CA 21.3509 22.2739 87.6146
CA 2.73574 19.7166 39.79
CA 16.1205 33.2702 60.2544
CA 22.8179 15.4186 44.4264
CA 6.66549 32.6749 49.02
CA 16.7247 19.0611 72.8267
CA 14.8726 6.99245 37.707
CA 14.2098 15.4509 55.4223
CA -0.00104333 27.6854 79.0784
CA 22.3698 39.5199 58.9816
CA 26.2404 22.2498 33.4911
CA 22.1778 43.906 44.9835
CA 38.8255 29.4177 58.3625
CA 20.9763 33.6046 61.0992
CA 37.148 43.1051 63.8806
CA 14.6262 30.8971 75.6718
CA 0.755407 25.403 74.6909
CA 20.7644 19.3815 61.6218
CA -0.543978 9.20097 29.2833
CA 5.70727 31.4575 57.5418
CA 17.7483 0.741548 50.01
CA 25.325 19.8711 88.4424
CA 1.6126 28.0998 30.4995
CA 42.689 9.75282 58.1454
CA -0.525973 21.0949 29.0586
CA 4.45755 1.22564 64.1742
CA 14.0977 39.5148 53.7424
CA 15.5347 11.6276 28.1093
CA -7.74618 36.87 52.1454
CA 10.9131 33.1117 60.8789
CA 38.1317 21.1084 60.4285
CA 17.3977 28.7059 49.4834
CA 10.805 10.58 58.6057
CA 23.5512 22.5794 81.2413
CA 21.2397 44.445 52.5994
CA 32.6781 32.7202 63.5473
CA 7.1257 16.4345 47.5641
CA -14.7489 32.2235 24.4099
CA 37.3857 28.813 65.5265
CA -13.3922 35.0942 23.5298
CA 42.1578 28.1097 52.2576
CA 35.1907 13.1928 61.6829
CA -4.66531 30.874 21.5538
CA 14.2516 18.7631 87.7713
CA 5.88223 34.1427 58.3905
CA 13.5021 24.4718 59.917
CA 1.50617 27.5365 83.7511
CA 40.4945 21.117 61.8785
CA -18.4404 39.8683 18.9444
CA -9.10104 34.2067 16.6367
CA 6.80229 25.6796 70.6345
CA 15.2922 22.7237 47.9806
CA 0.913493 16.4303 91.5381
CA 11.5052 33.4492 46.1675
CA 25.1329 25.242 34.2409
CA 21.7932 26.2507 43.1551
CA 19.2442 -1.19608 37.8813
CA 39.7187 38.5899 59.3173
CA 18.0095 34.4581 54.2912
CA 7.05189 22.506 91.3847
CA 23.2624 18.0761 41.6723
CA 33.0399 13.3756 54.4505
CA 27.5359 17.806 93.0895
CA 22.6722 2.38436 50.5566
CA 17.6676 38.787 46.9853
CA 11.5875 27.3922 56.1423
CA 11.2584 27.5136 59.4959
CA 10.0769 29.1918 75.6612
CA 29.1012 29.6758 50.5703
CA 27.3558 20.4649 77.1829
CA 35.1537 27.4976 39.1922
CA -8.29302 24.3439 47.8233
CA 27.6551 24.7884 39.8048
CA 22.725 17.9064 79.8281
CA -10.2181 23.2183 19.5326
CA -5.52155 28.6368 22.5556
CA 12.8134 21.0753 33.9795
CA 31.368 8.46341 58.1122
CA -13.5186 21.8102 58.7087
CA 11.147 10.2164 53.7935
CA 7.02669 32.0622 51.018
CA 13.2681 8.71558 42.3836
CA -8.50862 31.8864 44.0772
CA 18.1533 11.5762 82.1561
CA 23.9759 34.2256 64.8849
CA 23.2884 24.9734 48.3945
CA 19.7805 1.12805 43.9566
CA 12.7855 17.5157 60.904
CA 6.00806 26.8226 55.0262
CA 35.8571 39.5491 64.5325
CA 36.6788 24.1233 61.2182
CA -0.782247 26.3088 31.4959
CA 29.0226 38.323 42.8776
CA 13.4063 37.4124 58.1972
CA 0.617041 31.5728 45.2097
CA 22.7737 45.4107 46.1039
CA 4.72868 3.47438 51.1517
CA -4.58355 29.239 16.8602
CA -8.63092 34.8697 18.9135
CA -3.03801 32.9886 47.6969
CA 4.01628 -9.7492 54.8295
CA 17.6339 43.4151 43.7236
CA -12.0171 25.054 18.8709
CA 7.72964 30.7257 38.6273
CA 23.2036 25.9612 52.2269
CA 1.29796 20.1906 28.0791
CA 3.61941 28.8563 66.0036
CA 44.6845 33.8587 60.2857
CA 22.1656 23.5607 80.4609
CA 18.9738 39.9209 52.5372
CA 8.93412 23.9149 63.1838
CA 43.6392 32.8066 55.0849
CA 8.85237 19.8508 75.514
CA -3.744 26.1062 19.2813
CA 17.598 14.4801 81.599
CA 22.3167 18.6777 74.9386
CA 9.38237 11.169 61.7739
CA 11.5811 18.9733 75.615
CA 20.2604 14.8074 92.7505
CA 12.3495 38.6135 70.7557
CA -3.54981 38.465 48.0331
CA 5.79279 26.5364 78.6211
CA 6.9203 12.436 33.371
CA 13.9859 29.8845 43.69
CA 10.2568 20.1234 79.3331
CA 41.0306 37.3909 57.6787
CA 23.2993 23.8167 84.2764
CA 1.03645 13.5952 33.2005
CA -7.46643 39.2365 52.6943
CA 17.698 0.640988 40.7648
CA 20.8966 39.9647 46.1074
CA -12.3252 22.6431 17.9478
CA 5.84417 -5.51029 59.546
CA 16.8789 25.3871 84.2035
CA 13.5606 30.1253 77.1766
CA 3.11834 15.2572 39.4155
CA 19.5903 16.3264 41.8821
CA 25.9553 9.33262 55.1453
CA 0.0922597 22.3407 93.2195
CA 9.804 15.6883 65.5909
CA 37.3486 32.2666 55.7698
CA 14.9204 19.807 63.2385
CA 12.0413 25.8704 65.4119
CA 25.5148 12.7653 66.3408
CA 6.7391 24.9584 64.5896
CA 23.5293 44.9496 40.6659
CA 28.4783 41.1751 59.7711
CA 22.383 42.3099 55.7717
CA 1.16841 23.225 28.7246
CA 22.1478 40.1799 49.3575
CA 14.4809 7.05268 61.5839
CA 6.55505 22.346 95.1656
CA 11.0341 33.281 48.2595
CA 12.1179 22.7456 72.1917
CA 7.42509 13.2563 66.4019
CA -3.47943 8.956 53.2509
CA 9.12143 9.53695 51.3732
CA 12.4739 25.6691 56.2541
CA 36.9868 10.7314 60.7873
CA 14.9102 32.3224 43.2868
CA 15.6501 -2.01829 35.0512
CA -1.63793 23.4561 17.4294
CA -5.56521 23.1074 16.5057
CA 12.8124 27.0074 80.9413
CA -2.32452 29.6023 18.3985
CA -7.34358 39.6143 50.5739
CA 21.2332 22.1163 53.9076
CA 21.7633 10.5676 34.9843
CA 22.4306 1.80742 52.516
CA 30.9743 13.9282 58.5982
CA -9.79606 5.6543 60.5176
CA 20.451 5.50562 45.7408
CA 11.9664 36.4735 67.343
CA 12.3728 24.4529 71.1814
CA 0.62767 27.4597 64.3713
CA -4.20544 30.0905 46.0943
CA 4.19416 8.50504 69.4771
CA 9.64435 28.3469 68.0671
CA 10.6666 13.0329 40.9992
CA 3.80182 25.7989 80.0752
CA 38.7805 10.7521 61.1745
CA 28.7706 33.3297 45.5983
CA 9.92108 38.9478 85.1234
CA -2.36654 32.5165 57.3316
CA -17.5713 34.4779 17.6262
CA 16.9426 31.1864 68.2885
CA 2.26883 23.7223 86.0101
CA 24.4799 -3.50578 50.5758
CA 33.6251 11.5503 63.6331
CA 5.09519 24.8622 37.4078
CA 13.6338 22.8005 57.6377
CA 11.8071 8.39219 45.7951
CA 33.7078 25.6539 53.0882
CA 12.3477 28.1627 41.045
CA -8.25527 38.2954 48.7549
CA -2.32191 31.9177 37.5185
CA 19.328 24.6028 72.088
CA -6.47008 28.7697 17.9124
CA 6.4895 1.51709 50.0865
CA -9.73038 27.6309 21.2566
CA -9.6546 25.8218 54.4716
CA 23.1677 0.396381 36.3892
CA 25.5596 18.8185 69.2777
CA 34.7026 20.9886 63.8903
CA 21.3865 13.2147 39.2655
CA 1.96435 30.3092 31.1156
CA 9.89478 13.1404 67.0719
CA 19.8837 3.93664 43.5554
CA 24.3328 24.4228 44.0213
CA 24.2058 20.2296 83.5154
CA 18.7175 14.0379 83.0126
CA 22.2383 13.0889 54.6156
CA 23.5484 15.4342 31.1506
CA 28.7842 26.9889 39.9524
CA 29.1197 4.61003 58.229
CA 5.66323 -3.04555 63.3619
CA 19.1211 32.8009 54.2201
CA 33.2216 32.5254 57.8443
CA 40.3115 42.1433 64.283
CA 21.9479 31.9475 50.3208
CA 5.84431 -4.35139 65.4422
CA 13.0738 29.2646 39.2333
CA 19.2557 13.3788 80.3805
CA 7.18874 19.7237 85.3539
CA 21.9904 22.3355 42.4806
CA 9.61812 41.3351 52.8799
CA 39.9773 28.147 57.6236
CA 15.6386 26.4693 81.9986
CA 2.75592 30.0907 84.0621
CA 2.56818 18.1737 87.2602
CA 21.5913 26.8164 85.0147
CA -2.65352 5.2113 59.2299
CA 2.0968 14.9699 88.6395
CA 21.6907 38.4758 43.9447
CA 12.7227 3.43553 64.223
CA 13.484 13.276 32.5222
CA 4.78953 5.48254 66.8596
CA -20.3375 30.8591 15.4069
CA 5.32829 10.7657 28.9453
CA 7.39288 33.0711 83.1599
CA 30.6458 33.9437 49.591
CA 14.6498 6.23487 65.1302
CA 26.0772 23.6188 38.4775
CA 39.4208 20.252 50.4809
CA 15.443 12.1859 40.9878
CA 7.37735 30.0459 51.0039
CA 28.7038 39.1599 51.2431
CA 24.869 44.3839 58.8048
CA 1.88795 22.7419 42.5649
CA 21.6853 -2.02969 47.0104
CA -13.0071 26.3308 52.4406
CA -9.40606 42.2514 26.0981
CA 10.8592 25.2185 44.3907
CA 13.37 21.5066 82.0354
CA 17.1864 17.341 88.9546
CA 34.447 28.8184 65.9903
CA 6.19816 28.227 36.3564
CA -12.843 33.1926 58.9343
CA 18.6803 41.9272 43.348
CA 23.3086 7.03216 35.405
CA 20.5835 18.8828 56.2644
CA 15.1369 22.2072 59.8195
CA -11.2892 27.7727 15.602
