489

CA -3.22585 0.98151 57.1725
CA -9.36769 29.8384 53.8144
CA 10.0416 29.005 33.1873
CA 8.736 29.5602 70.8541
CA 38.9383 16.5619 53.6575
CA 2.98139 31.4493 70.8685
CA 44.9579 7.98785 54.2514
CA -15.7157 25.0816 57.4638
CA 7.38181 23.3866 78.0851
CA 23.2694 15.3502 71.3134
CA 14.5797 22.01 39.3262
CA 4.71688 0.669674 67.5641
CA 3.26334 12.3381 37.58
CA 18.7028 20.1009 49.7775
CA 28.6553 11.0241 55.7825
CA 2.50638 17.0682 40.6001
CA 21.2469 27.1028 51.358
CA 35.2174 36.1273 66.5321
CA 27.0208 45.0195 55.6595
CA 39.7195 22.1852 58.0692
CA 6.63991 2.22124 59.1918
CA 10.5174 24.707 57.1789
CA 19.8947 21.4411 44.5006
CA -8.02948 21.4564 19.8614
CA 28.2851 9.88986 83.8502
CA 4.75977 15.3073 32.4707
CA 2.03341 31.9257 88.3401
CA 21.5554 21.0777 70.3823
CA 15.1002 20.8873 64.7303
CA 25.2266 18.4622 90.8663
CA 21.069 40.244 63.2778
CA 33.3872 8.01091 63.9546
CA 8.47022 27.3946 55.6374
CA 23.1585 23.5723 89.1737
CA 16.4828 8.10771 69.2248
CA 15.2029 14.8666 86.9944
CA 5.30999 12.7366 35.4966
CA 18.1125 1.09685 31.2557
CA 24.0993 -2.60246 47.1482
CA 11.7102 7.68822 42.7363
CA 2.4828 29.373 47.1306
CA 22.9716 38.3806 53.5322
CA 17.773 7.16264 64.6671
CA 39.1033 31.5745 62.2118
CA -11.4356 24.1523 56.5678
CA 23.2773 42.8661 53.241
CA 21.5797 29.8606 42.4975
CA 6.52816 4.94578 51.2289
CA 19.0615 10.3751 36.9361
CA 12.128 18.7026 46.4545
CA 0.946542 24.9504 19.5617
CA -4.88067 35.9376 29.1516
CA 14.3507 34.6085 60.3408
CA 33.3485 40.0958 63.2537
CA 27.3474 40.3524 52.2312
CA 11.2053 37.6667 46.402
CA 34.1356 26.6332 49.4805
CA -0.457463 31.1973 61.3197
CA 33.8545 31.1989 42.1291
CA 28.1564 20.3949 88.2532
CA 4.99341 13.3331 32.517
CA 21.044 7.83704 37.6088
CA 21.4784 36.7959 48.5532
CA 36.207 28.9084 52.5546
CA 14.3839 32.1526 68.1753
CA 27.8151 10.8391 82.1774
CA 20.8153 11.6972 29.76
CA -4.09027 23.3868 64.0277
CA 20.8375 41.9919 47.3737
CA 18.0767 15.3364 28.8218
CA -5.87641 2.81484 61.9387
CA 7.28147 10.7552 68.6302
CA 19.4444 44.0536 50.5153
CA 3.63916 32.8343 59.0135
CA 3.1898 18.4225 26.2566
CA 30.0791 30.2757 46.2178
CA -4.71551 30.4077 27.428
CA 3.18675 23.6355 90.7353
CA 15.691 2.10568 37.2285
CA 23.6007 7.85073 33.4814
CA 16.8443 16.5458 80.5588
CA -11.774 36.8835 19.2186
CA 23.1972 19.5312 47.9264
CA 10.2551 27.782 82.0893
CA 5.11946 7.78515 58.5967
CA 7.11236 14.4898 38.9829
CA 8.00572 -6.55568 60.5868
CA 28.0746 13.441 55.3606
CA 31.952 35.3332 43.3957
CA 32.2239 37.0005 63.0125
CA 22.378 1.55584 48.6082
CA 36.8467 26.8453 41.189
CA 32.2127 34.5382 63.7566
CA 3.46305 31.9623 81.6962
CA -12.1595 34.8462 18.3631
CA 15.8828 18.7136 80.0583
CA 19.3189 47.3393 46.5431
CA -3.15861 0.679306 60.0779
CA 0.909014 3.18289 57.698
CA -14.7141 31.8488 16.0652
CA 11.0886 39.7535 54.0069
CA -13.8556 31.3777 54.5402
CA 22.8741 41.0867 65.2625
CA 9.90235 34.8368 84.7531
CA 21.4112 -3.86265 50.1082
CA 41.6271 14.2034 51.5143
CA 8.88752 12.4468 59.0028
CA 18.6164 36.3794 46.4494
CA -10.9382 30.7521 21.4766
CA 29.9601 32.6775 57.2368
CA 6.13261 11.2643 31.5327
CA 22.6991 13.34 81.8561
CA 30.6466 14.5908 83.7326
CA 20.2815 6.39856 43.3664
CA 10.9164 15.6608 44.3011
CA 37.3458 20.8664 64.1268
CA 26.4864 11.967 60.2144
CA 23.8449 24.3116 41.5266
CA 8.13661 17.9342 26.4489
CA 39.436 19.5975 56.2347
CA 8.23479 23.8649 79.6206
CA 5.20651 31.916 69.5669
CA 20.0511 27.2152 54.6948
CA 14.1621 15.0776 79.4276
CA 14.7696 14.6269 84.3692
CA 6.06477 29.9016 37.6477
CA -5.15764 3.64639 51.6015
CA 36.1556 15.7606 53.817
CA 12.7954 18.3656 58.6609
CA 32.8311 32.0745 48.5766
CA 15.215 12.343 66.1067
CA 17.8968 4.41915 44.7892
CA 15.8324 31.5698 38.8966
CA 7.02336 12.5214 58.6319
CA 3.94133 30.855 53.4061
CA 32.2425 24.379 49.9456
CA 1.28102 18.6732 35.1471
CA 12.9747 27.362 47.7794
CA 7.94642 7.84364 57.7397
CA 7.18425 28.5553 61.8025
CA 35.28 26.77 56.8796
CA 21.7163 5.46058 62.0908
CA 21.9423 14.6163 75.9949
CA 27.7204 13.0544 80.8101
CA 22.3821 25.114 74.7868
CA 30.482 35.9788 59.3342
CA 14.9555 28.1036 75.3895
CA 28 23.415 80.0543
CA 2.99993 32.9585 83.2668
CA 33.2997 27.3756 40.2649
CA 13.3278 35.5972 69.1368
CA 34.2441 18.8712 56.8721
CA 36.6841 30.9696 61.9898
CA 19.3492 16.7131 38.5075
CA -14.4656 36.2747 19.2802
CA 13.7475 19.717 46.0506
CA 38.7347 13.2413 58.3102
CA 20.4844 43.1558 56.1433
CA -7.06152 3.46524 48.3201
CA 12.8002 17.0355 49.3146
CA 7.04173 13.1501 62.9708
CA 30.5097 38.0483 57.6123
CA 42.0248 13.3021 63.6408
CA -7.5082 -1.74007 54.9063
CA 10.7652 19.2313 36.4327
CA 10.6576 23.6592 71.5361
CA -4.62049 19.6261 60.7721
CA 4.12546 29.0112 52.3779
CA 3.75979 5.01159 51.2065
CA 3.80318 21.9403 39.3593
CA 13.2018 3.76453 33.7816
CA 4.72169 3.50098 66.5638
CA 17.5463 22.9291 48.4556
CA 0.247849 22.0716 39.0328
CA 26.3338 42.0389 55.0696
CA 13.3896 13.202 79.0793
CA 18.3278 15.4733 43.0652
CA 28.4925 17.7096 88.1548
CA -0.587682 1.15635 62.2881
CA 9.53507 13.6657 65.9478
CA 26.7517 18.2077 89.2109
CA 7.61255 16.2475 55.4865
CA 20.9942 41.8618 54.7225
CA 6.47033 5.28648 71.3634
CA -13.4218 28.0212 51.0291
CA 20.2039 17.0662 52.266
CA 20.1003 19.5854 77.0652
CA -0.238856 24.6038 28.2643
CA 9.01192 28.6625 53.5269
CA 11.1905 9.49726 47.8391
CA -21.7964 32.7311 19.3626
CA 34.9756 36.5831 59.4067
CA 19.1772 43.9375 61.6859
CA -0.842644 27.155 29.4671
CA 13.5758 8.74247 43.1296
CA 17.5441 17.0487 63.6776
CA -3.85015 27.5022 16.2909
CA 0.835148 29.1463 36.4004
CA -5.53607 31.8242 43.3748
CA 8.82359 21.8189 95.1853
CA 13.6036 17.7972 73.9343
CA -14.3358 26.5689 50.2704
CA -15.0077 33.1071 22.3598
CA 25.1801 20.5405 91.2316
CA 5.62543 38.5079 81.4411
CA -4.05962 11.0482 33.1945
CA -6.05509 35.3868 54.6766
CA 0.300809 32.4027 49.1636
CA 17.6653 31.5722 37.9739
CA -2.41625 28.6359 16.3053
CA 7.29546 9.3755 60.7788
CA 15.7933 8.56915 56.8137
CA 10.9281 17.3376 36.0676
CA 10.3185 16.6517 79.8003
CA 17.8396 1.27108 45.5014
CA 35.723 30.4767 56.3009
CA -2.19132 26.8805 66.1772
CA 9.78788 14.0504 36.3703
CA 25.439 13.9451 68.0202
CA 28.7547 18.1159 59.6416
CA 19.189 41.0902 56.6909
CA 26.5599 24.5596 80.3996
CA -7.51328 23.3898 56.4462
CA 7.71236 4.06978 68.3081
CA -11.2996 31.0165 51.4175
CA 18.1619 1.54752 33.0052
CA 2.58469 21.0887 90.5881
CA 10.8752 25.1021 84.5526
CA 16.1205 33.2702 60.2544
CA 7.62696 24.6852 87.4758
CA 2.66881 7.13654 66.4131
CA 21.674 20.5359 56.5714
CA 22.0506 43.3529 64.6086
CA 24.3419 24.7263 39.806
CA -0.00104333 27.6854 79.0784
CA 22.3698 39.5199 58.9816
CA 18.385 15.1512 39.8724
CA 22.1778 43.906 44.9835
CA 38.8255 29.4177 58.3625
CA 20.9763 33.6046 61.0992
CA 18.2589 -5.78622 46.5943
CA 34.0661 29.4778 58.6093
CA 31.3201 37.9386 59.5301
CA 20.7644 19.3815 61.6218
CA -0.543978 9.20097 29.2833
CA 5.70727 31.4575 57.5418
CA 6.60786 27.2728 91.3022
CA 35.5058 25.2505 48.812
CA -6.82652 17.6464 18.4188
CA 42.689 9.75282 58.1454
CA -0.525973 21.0949 29.0586
CA 5.01377 28.4348 37.9509
CA -5.83319 0.506873 48.165
CA 15.5347 11.6276 28.1093
CA 10.1211 13.5486 62.1985
CA 10.9131 33.1117 60.8789
CA -22.4824 30.7629 15.1657
CA 2.16921 35.3053 58.704
CA 10.805 10.58 58.6057
CA 20.93 46.33 50.2741
CA 13.3018 13.717 30.3736
CA 17.4302 18.6175 49.8493
CA 7.1257 16.4345 47.5641
CA 16.9645 25.5191 59.1051
CA -4.84359 28.922 48.3412
CA 11.6784 15.2942 75.6431
CA 6.84414 35.7664 63.448
CA 4.35351 34.3294 78.6174
CA 6.37302 39.04 47.9229
CA 2.03416 26.5216 29.6456
CA 35.5109 25.9576 50.5439
CA 6.9473 24.7427 40.698
CA 1.50617 27.5365 83.7511
CA 40.4945 21.117 61.8785
CA -18.4404 39.8683 18.9444
CA 0.691073 30.5508 48.364
CA 15.2809 5.12441 44.9583
CA 15.2922 22.7237 47.9806
CA -2.38833 20.0306 31.5552
CA 11.5052 33.4492 46.1675
CA -17.4963 24.9414 55.7814
CA 21.7932 26.2507 43.1551
CA 0.230689 29.406 51.8795
CA 39.7187 38.5899 59.3173
CA 11.0671 25.7753 52.2796
CA 17.5399 19.9647 47.9994
CA 23.88 34.787 45.6612
CA 33.0399 13.3756 54.4505
CA 12.3285 13.9221 35.2749
CA 22.6722 2.38436 50.5566
CA 24.1381 25.3665 83.1883
CA 29.3985 29.9104 55.3882
CA 16.1372 9.32642 43.4934
CA 10.7201 28.9604 77.1061
CA 29.1012 29.6758 50.5703
CA 34.4672 28.583 60.2717
CA 35.1537 27.4976 39.1922
CA 12.4731 28.3054 63.3551
CA -6.00827 23.0276 51.8029
CA 22.725 17.9064 79.8281
CA 6.00651 -1.29606 65.6958
CA -5.52155 28.6368 22.5556
CA 11.342 14.0465 51.6876
CA -17.6225 30.7844 18.0041
CA 43.8658 37.4613 57.0927
CA -6.52156 26.5208 56.7781
CA 3.15966 25.5544 39.0783
CA 20.9227 21.9095 76.2497
CA -8.50862 31.8864 44.0772
CA 34.5076 33.2652 44.7662
CA 23.9759 34.2256 64.8849
CA 23.2884 24.9734 48.3945
CA -3.1347 31.0417 19.2471
CA 33.7769 38.3705 44.4983
CA 16.504 21.8507 41.0058
CA 35.8571 39.5491 64.5325
CA 16.9394 11.4516 43.882
CA 29.1816 17.2424 85.8184
CA 21.9884 -1.58991 48.3888
CA 13.4063 37.4124 58.1972
CA 19.7473 8.03376 35.7209
CA 22.7737 45.4107 46.1039
CA 29.2697 17.0335 90.2443
CA -4.58355 29.239 16.8602
CA 16.0079 30.4889 62.4081
CA 23.7804 -0.369776 49.9918
CA 1.77522 26.3054 53.5372
CA 5.64204 33.5793 62.5231
CA 19.3349 23.1856 60.3857
CA 24.2135 32.7778 49.6471
CA 7.83202 15.9016 35.9905
CA 15.1875 21.612 42.9379
CA 2.96597 21.239 95.1249
CA 44.6845 33.8587 60.2857
CA 22.1656 23.5607 80.4609
CA -8.82916 19.5024 20.3999
CA 8.93412 23.9149 63.1838
CA 43.6392 32.8066 55.0849
CA 24.1112 10.8505 31.9176
CA -3.744 26.1062 19.2813
CA 15.9295 27.1679 49.0805
CA 22.3167 18.6777 74.9386
CA 9.38237 11.169 61.7739
CA -0.00924236 23.128 26.6703
CA 21.1047 30.712 73.0384
CA 5.13273 9.31564 62.4796
CA 3.2668 26.1982 51.0028
CA -2.07514 31.8557 46.6359
CA -2.39335 4.48643 57.2141
CA 14.7955 28.0242 84.5069
CA 10.2568 20.1234 79.3331
CA 41.0306 37.3909 57.6787
CA 23.2993 23.8167 84.2764
CA 1.03645 13.5952 33.2005
CA -7.46643 39.2365 52.6943
CA 17.698 0.640988 40.7648
CA 10.5934 27.1915 34.1789
CA -12.3252 22.6431 17.9478
CA 33.3854 16.7427 61.6905
CA 13.1376 23.6528 38.6805
CA 32.7653 33.3138 52.4074
CA 3.74154 35.1886 85.1674
CA 19.5903 16.3264 41.8821
CA 35.9005 9.90924 59.1782
CA 0.0922597 22.3407 93.2195
CA 9.804 15.6883 65.5909
CA 33.8735 35.6115 42.7701
CA 14.9204 19.807 63.2385
CA 1.2859 5.01204 61.5148
CA 25.5148 12.7653 66.3408
CA 6.7391 24.9584 64.5896
CA 2.38486 25.6021 64.6447
CA -14.161 31.3627 52.2322
CA -12.3453 30.2667 16.8612
CA 1.16841 23.225 28.7246
CA 9.59569 8.95311 31.8371
CA 14.4809 7.05268 61.5839
CA 6.55505 22.346 95.1656
CA 11.0341 33.281 48.2595
CA 23.8022 13.4329 86.2615
CA -5.67435 -0.771693 53.0286
CA -3.47943 8.956 53.2509
CA 9.12143 9.53695 51.3732
CA 12.4739 25.6691 56.2541
CA 36.9868 10.7314 60.7873
CA 14.9102 32.3224 43.2868
CA 15.6501 -2.01829 35.0512
CA 12.7892 38.5133 84.374
CA -5.56521 23.1074 16.5057
CA 16.4817 13.7439 64.5239
CA -2.32452 29.6023 18.3985
CA 26.2838 24.133 75.9411
CA 21.2332 22.1163 53.9076
CA 21.7633 10.5676 34.9843
CA 23.602 7.46919 37.4589
CA 30.9743 13.9282 58.5982
CA -9.79606 5.6543 60.5176
CA 20.451 5.50562 45.7408
CA 3.6712 35.6986 62.4168
CA 12.3728 24.4529 71.1814
CA 0.62767 27.4597 64.3713
CA -4.20544 30.0905 46.0943
CA 14.9223 11.9071 60.9818
CA 9.64435 28.3469 68.0671
CA 40.6287 11.3793 59.6171
CA 26.8432 -2.81648 45.9036
CA 18.0676 22.9671 64.5005
CA 5.80969 25.4637 67.8388
CA 9.92108 38.9478 85.1234
CA -2.36654 32.5165 57.3316
CA -17.5713 34.4779 17.6262
CA 8.48258 4.24561 51.3001
CA 2.26883 23.7223 86.0101
CA -11.6186 28.5871 54.1238
CA -11.796 28.3645 21.1446
CA 40.1782 25.2671 58.209
CA 13.6338 22.8005 57.6377
CA 11.8071 8.39219 45.7951
CA 33.7078 25.6539 53.0882
CA 7.45172 15.4974 49.1256
CA -8.25527 38.2954 48.7549
CA 6.1225 21.2181 89.3922
CA 19.328 24.6028 72.088
CA -1.66515 23.5009 18.4923
CA 3.78147 33.0265 64.3671
CA -19.9428 28.7597 18.7304
CA -9.6546 25.8218 54.4716
CA 22.3558 20.4503 87.6762
CA 9.99271 34.0283 79.1209
CA -5.44797 29.0689 40.578
CA 21.3865 13.2147 39.2655
CA 1.96435 30.3092 31.1156
CA 36.9812 28.4332 42.1785
CA 19.8837 3.93664 43.5554
CA 2.50949 21.1089 44.1899
CA 37.3206 25.7245 38.0603
CA 18.7175 14.0379 83.0126
CA 29.117 32.718 53.9276
CA 17.7051 30.5429 74.7365
CA -3.54565 14.8415 34.8357
CA 4.62875 0.462702 61.5094
CA 30.7277 36.3838 50.9161
CA 19.1211 32.8009 54.2201
CA 33.2216 32.5254 57.8443
CA 31.0326 14.0858 79.3774
CA 21.9479 31.9475 50.3208
CA 5.84431 -4.35139 65.4422
CA 21.862 6.38728 46.8774
CA 10.0214 23.7578 36.1079
CA 7.18874 19.7237 85.3539
CA 11.3663 33.7048 72.1488
CA 14.9404 24.2806 39.2605
CA 39.9773 28.147 57.6236
CA 26.3077 20.7057 87.0406
CA 2.75592 30.0907 84.0621
CA 2.56818 18.1737 87.2602
CA 21.5913 26.8164 85.0147
CA -2.65352 5.2113 59.2299
CA 15.1954 32.3043 63.9825
CA 21.6907 38.4758 43.9447
CA 13.2617 29.5459 47.7622
CA 21.4969 37.7719 65.8155
CA 4.78953 5.48254 66.8596
CA -20.3375 30.8591 15.4069
CA 25.0971 14.6662 77.2535
CA 7.39288 33.0711 83.1599
CA 30.6458 33.9437 49.591
CA 15.7757 7.09882 37.8702
CA 6.02357 27.1717 50.6733
CA 39.4208 20.252 50.4809
CA 15.443 12.1859 40.9878
CA 13.2423 34.0264 51.5337
CA 28.7038 39.1599 51.2431
CA 17.5666 9.80008 60.9533
CA -0.417857 32.2042 42.9637
CA -0.152596 8.90953 53.0558
CA 4.94044 22.3838 85.5808
CA -16.1583 20.5903 56.1174
CA 32.1098 21.4397 62.2564
CA -3.94548 29.08 54.9287
CA 33.5273 30.0818 39.6862
CA -2.2058 1.96541 48.1084
CA 6.19816 28.227 36.3564
CA 16.5078 22.6685 71.0972
CA 20.1479 23.8447 36.6949
CA 23.3086 7.03216 35.405
CA 20.5835 18.8828 56.2644
CA 15.1369 22.2072 59.8195
CA -11.2892 27.7727 15.602
