489

CA 17.8185 32.3148 75.8518
CA 28.2338 15.24 87.7559
CA 18.3283 -1.51025 44.7907
CA 36.0174 14.6746 52.3217
CA 38.9383 16.5619 53.6575
CA 29.2911 33.9902 54.5829
CA 23.118 25.3425 49.5654
CA 8.65809 18.693 43.6302
CA 6.18528 21.1496 41.1196
CA 23.2694 15.3502 71.3134
CA 6.07774 27.0946 62.3038
CA 20.7182 34.7111 45.2137
CA 3.26334 12.3381 37.58
CA 13.1995 38.1216 67.6914
CA 28.6553 11.0241 55.7825
CA 28.7918 24.5052 42.5569
CA 2.53099 31.8028 45.3081
CA 8.0794 27.3278 68.0121
CA 9.10883 25.5072 37.0964
CA 39.7195 22.1852 58.0692
CA 10.811 11.1831 40.45
CA 42.8611 18.2231 55.2517
CA 5.03603 15.0211 52.4668
CA 40.4265 41.0046 50.2337
CA 42.9115 23.2964 59.6333
CA 37.5219 27.2763 40.7294
CA 20.091 24.2491 79.7306
CA 21.5554 21.0777 70.3823
CA 15.1002 20.8873 64.7303
CA 27.8167 22.4145 39.5278
CA 21.069 40.244 63.2778
CA 33.3872 8.01091 63.9546
CA 5.62109 23.5889 86.7517
CA 29.4409 23.7739 79.0278
CA 16.4828 8.10771 69.2248
CA 25.183 24.0125 90.1777
CA 5.30999 12.7366 35.4966
CA 11.778 19.4316 57.5088
CA 24.0993 -2.60246 47.1482
CA -20.3471 35.1354 14.98
CA 24.2844 32.1021 53.7091
CA 40.9014 9.09744 57.8853
CA 17.773 7.16264 64.6671
CA 30.427 31.7298 59.3439
CA -11.4356 24.1523 56.5678
CA 23.2773 42.8661 53.241
CA 21.5797 29.8606 42.4975
CA 24.5294 -5.97359 48.8936
CA 7.21839 29.7701 54.6892
CA -0.907342 33.1413 59.2494
CA 13.4294 -7.93357 46.7246
CA 2.14189 35.1489 61.3582
CA 1.73914 8.23589 58.8899
CA 14.4269 8.32129 55.5659
CA 37.7501 38.039 62.8762
CA 39.9987 39.6064 54.1934
CA 22.9217 15.7269 43.322
CA 1.30467 28.1103 46.9168
CA 33.8545 31.1989 42.1291
CA 21.9241 31.1777 52.8403
CA 11.6319 27.2309 54.4946
CA 21.044 7.83704 37.6088
CA 21.4784 36.7959 48.5532
CA 33.6251 32.2303 43.6318
CA 9.81098 9.78767 63.8727
CA -8.98822 21.3777 60.1052
CA 20.8153 11.6972 29.76
CA 11.3644 3.93071 48.4574
CA 0.106741 14.2848 37.8772
CA 32.1357 13.8178 51.4574
CA -5.87641 2.81484 61.9387
CA 9.70709 3.11085 53.0554
CA 7.23024 33.1191 70.2066
CA 7.2392 24.3428 62.4578
CA 29.0285 37.1125 57.1088
CA 30.0791 30.2757 46.2178
CA -4.71551 30.4077 27.428
CA 3.18675 23.6355 90.7353
CA 15.691 2.10568 37.2285
CA 44.0848 19.9039 56.1654
CA 16.8443 16.5458 80.5588
CA 28.1248 22.8439 88.3069
CA 32.2121 40.9076 56.9139
CA 10.2551 27.782 82.0893
CA 47.2422 20.5689 52.2908
CA -4.10513 2.34267 65.0609
CA 2.90334 4.02908 62.4268
CA 28.0746 13.441 55.3606
CA 10.1807 26.7074 85.9149
CA 8.62483 28.8848 82.9832
CA 33.7095 22.0421 58.4524
CA 31.2751 16.6464 89.8739
CA 32.2127 34.5382 63.7566
CA -10.2589 18.7501 17.5781
CA -12.1595 34.8462 18.3631
CA 39.5008 7.80107 59.5473
CA 0.689084 10.4347 34.0591
CA 9.14327 18.5603 65.7582
CA 23.4912 43.4649 60.763
CA -14.7141 31.8488 16.0652
CA 29.2453 35.7434 69.4757
CA -13.8556 31.3777 54.5402
CA 22.8741 41.0867 65.2625
CA 10.9419 29.3264 74.4841
CA 5.12924 24.6717 44.4213
CA 41.6271 14.2034 51.5143
CA 23.1887 38.9416 67.9238
CA 20.1536 18.528 51.1476
CA 34.7156 34.2722 45.3571
CA 21.9088 15.0867 40.407
CA 6.13261 11.2643 31.5327
CA 0.868793 14.5956 36.228
CA 30.6466 14.5908 83.7326
CA 19.7962 12.5102 39.3398
CA 3.47428 6.29587 65.1671
CA 25.215 11.9038 43.4097
CA 8.83955 32.3014 79.819
CA 30.5762 9.85712 53.9432
CA 8.13661 17.9342 26.4489
CA 9.2771 22.4742 53.8812
CA -3.60745 32.4334 40.9077
CA 5.20651 31.916 69.5669
CA 20.0511 27.2152 54.6948
CA 39.9228 36.9953 49.9707
CA 14.7696 14.6269 84.3692
CA 43.4882 20.9876 52.878
CA -5.15764 3.64639 51.6015
CA 36.1556 15.7606 53.817
CA 15.4629 31.1119 56.6823
CA -5.17422 21.5369 24.5666
CA 15.215 12.343 66.1067
CA 17.8968 4.41915 44.7892
CA 1.33084 25.8657 37.673
CA 18.678 37.4944 57.4699
CA 38.7235 42.4943 52.4384
CA 32.2425 24.379 49.9456
CA 1.28102 18.6732 35.1471
CA 6.44289 29.2035 47.4911
CA 15.5656 27.9019 78.926
CA -1.05722 31.4317 45.7628
CA 35.8035 12.4581 48.6307
CA 21.7163 5.46058 62.0908
CA 21.9423 14.6163 75.9949
CA 27.7204 13.0544 80.8101
CA 22.3821 25.114 74.7868
CA 30.482 35.9788 59.3342
CA 10.799 35.8205 81.6142
CA 28 23.415 80.0543
CA 2.99993 32.9585 83.2668
CA 24.0098 39.9182 46.0578
CA 13.3278 35.5972 69.1368
CA -12.4982 31.9322 21.1764
CA 36.6841 30.9696 61.9898
CA 9.26054 21.4765 39.7203
CA -14.4656 36.2747 19.2802
CA -8.89995 1.75964 65.8333
CA 38.7347 13.2413 58.3102
CA 20.4844 43.1558 56.1433
CA 38.0571 21.9796 47.2799
CA 12.8002 17.0355 49.3146
CA 31.6449 29.3119 46.4862
CA 30.5097 38.0483 57.6123
CA 42.0248 13.3021 63.6408
CA 35.9677 34.743 58.0436
CA 31.8321 22.3228 53.7225
CA 15.9173 -1.14139 44.1937
CA -4.62049 19.6261 60.7721
CA 4.12546 29.0112 52.3779
CA 5.82081 26.7296 66.4779
CA 3.80318 21.9403 39.3593
CA 13.2018 3.76453 33.7816
CA 17.1866 6.51097 68.0342
CA 17.5463 22.9291 48.4556
CA -5.95658 23.3618 30.2666
CA 3.70394 29.0017 34.8728
CA 14.3445 42.6269 82.5968
CA 31.3057 47.1464 52.0204
CA 28.4925 17.7096 88.1548
CA -0.587682 1.15635 62.2881
CA 9.53507 13.6657 65.9478
CA 26.7517 18.2077 89.2109
CA 7.61255 16.2475 55.4865
CA 22.909 28.0993 50.6624
CA -3.91305 7.178 51.9067
CA 39.9915 35.1035 56.2434
CA 20.2039 17.0662 52.266
CA 20.1003 19.5854 77.0652
CA 0.932902 31.9679 56.7757
CA 45.6119 10.2162 56.0657
CA 8.64699 27.3945 34.4364
CA -21.7964 32.7311 19.3626
CA 34.9756 36.5831 59.4067
CA 12.2209 38.1539 49.52
CA 12.1242 22.8997 53.5097
CA 13.5758 8.74247 43.1296
CA 31.5576 18.626 60.4681
CA -3.85015 27.5022 16.2909
CA 18.7118 39.7431 43.9852
CA -5.53607 31.8242 43.3748
CA 19.3397 24.3033 39.4584
CA 3.67355 11.7254 31.2334
CA -1.20612 19.2277 29.9249
CA 12.6418 35.6266 52.2354
CA -19.2056 28.9616 57.7349
CA 1.09347 14.1915 39.5125
CA -4.05962 11.0482 33.1945
CA -6.05509 35.3868 54.6766
CA 0.300809 32.4027 49.1636
CA 18.2252 20.6014 40.1594
CA -5.05028 25.6409 40.011
CA 17.5058 1.02277 38.3759
CA 24.5264 19.0512 44.0203
CA 33.0912 28.6821 51.0632
CA -2.93956 31.6825 42.7519
CA 39.0952 26.2034 59.9792
CA 4.26154 33.6595 70.069
CA -2.19132 26.8805 66.1772
CA 9.78788 14.0504 36.3703
CA 41.3041 22.3356 59.3124
CA 15.3703 21.7853 45.6805
CA 23.4012 3.90567 37.7021
CA 17.6938 10.3636 41.3056
CA 34.1533 20.8879 49.3582
CA 43.9128 36.1741 56.4671
CA -11.2996 31.0165 51.4175
CA 39.8362 24.3998 58.8461
CA 20.0669 29.2981 76.0648
CA 14.2172 15.1203 41.5832
CA 20.3797 -5.55861 47.0186
CA 7.62696 24.6852 87.4758
CA 35.9583 23.107 35.7245
CA 21.674 20.5359 56.5714
CA 22.0506 43.3529 64.6086
CA 24.3419 24.7263 39.806
CA -0.00104333 27.6854 79.0784
CA 22.3698 39.5199 58.9816
CA 7.23339 18.6028 61.1716
CA 24.585 30.2922 45.371
CA 6.72172 11.6001 56.8767
CA 20.9763 33.6046 61.0992
CA 18.2589 -5.78622 46.5943
CA 34.0661 29.4778 58.6093
CA -1.45961 33.4371 50.4504
CA 15.0339 19.9407 82.6865
CA -0.543978 9.20097 29.2833
CA 25.2082 13.5063 78.9488
CA 18.4196 26.6417 75.6942
CA 17.2771 12.8226 62.9961
CA -6.82652 17.6464 18.4188
CA 42.689 9.75282 58.1454
CA -0.525973 21.0949 29.0586
CA 17.7599 19.5172 83.6815
CA -5.78842 1.83629 53.5715
CA 11.0633 10.6318 68.6134
CA 5.23712 -4.2015 60.6933
CA 10.9131 33.1117 60.8789
CA -22.4824 30.7629 15.1657
CA 3.53694 5.49276 56.7297
CA 10.805 10.58 58.6057
CA 21.0646 4.62991 40.4562
CA 31.6819 14.2602 61.8236
CA 17.4302 18.6175 49.8493
CA 17.616 0.103949 45.3482
CA 20.1306 11.8079 84.751
CA -21.9335 31.5879 60.7531
CA 1.69097 3.87123 66.5183
CA 14.6927 34.1386 49.1084
CA -12.951 27.819 24.2235
CA 25.4924 16.8817 37.9307
CA 8.72666 27.1138 75.5927
CA 4.53099 27.3373 44.2113
CA 6.9473 24.7427 40.698
CA 1.50617 27.5365 83.7511
CA 40.4945 21.117 61.8785
CA 27.5751 44.2328 53.3706
CA 25.5793 35.036 61.0638
CA 19.2379 27.8401 52.5932
CA 29.2164 -4.04936 42.3431
CA -0.88595 6.64659 54.5333
CA 5.70985 1.93154 64.2693
CA -17.4963 24.9414 55.7814
CA 21.7932 26.2507 43.1551
CA 24.3318 17.0029 43.4356
CA 39.7187 38.5899 59.3173
CA 11.0671 25.7753 52.2796
CA 35.3874 22.4043 47.4811
CA 35.2634 25.8068 46.4399
CA 33.0399 13.3756 54.4505
CA -0.533671 18.9891 33.0742
CA 19.8805 27.85 79.1748
CA 12.7018 5.70004 43.9166
CA 17.0959 11.9258 38.5611
CA 7.64598 36.504 81.4375
CA 10.7201 28.9604 77.1061
CA 12.3824 18.4497 73.6698
CA -3.45279 26.7793 18.7081
CA 35.1537 27.4976 39.1922
CA 12.4731 28.3054 63.3551
CA -6.74982 27.8268 16.1978
CA 22.725 17.9064 79.8281
CA 22.6687 -2.40508 49.1097
CA -5.52155 28.6368 22.5556
CA 11.342 14.0465 51.6876
CA -17.6225 30.7844 18.0041
CA 18.3699 37.0604 67.1444
CA 20.6929 20.4281 48.0442
CA 16.3077 20.6923 78.1712
CA 5.09708 19.6979 27.0618
CA -8.50862 31.8864 44.0772
CA 15.7169 -8.87771 48.982
CA 23.9759 34.2256 64.8849
CA 31.6655 5.56065 63.0842
CA 11.1618 12.2332 65.8364
CA 8.99939 25.5977 35.1387
CA -21.0344 29.1576 15.4062
CA 35.8571 39.5491 64.5325
CA 16.9394 11.4516 43.882
CA 29.1816 17.2424 85.8184
CA -7.41683 25.1052 14.2072
CA 13.4063 37.4124 58.1972
CA 19.7473 8.03376 35.7209
CA 46.0999 13.4367 62.7692
CA 5.07462 27.5681 89.1496
CA -4.58355 29.239 16.8602
CA 22.6588 18.7031 49.9493
CA 23.7804 -0.369776 49.9918
CA 1.77522 26.3054 53.5372
CA 13.3708 31.942 60.5741
CA 35.2026 39.6157 58.9541
CA 36.499 22.5303 60.5113
CA -12.2253 34.588 20.1795
CA 28.0113 16.359 67.7925
CA 13.4291 21.6626 65.3086
CA 42.3922 20.6897 60.5883
CA 9.58486 7.30384 46.3596
CA -8.82916 19.5024 20.3999
CA 8.93412 23.9149 63.1838
CA 24.2671 20.6861 70.196
CA 18.7592 35.7809 44.0488
CA 27.4802 24.7932 38.6457
CA 25.4196 35.9287 48.1768
CA 5.48284 21.4709 92.4688
CA 9.38237 11.169 61.7739
CA -0.00924236 23.128 26.6703
CA 10.518 16.4477 48.5388
CA 15.8452 31.4901 76.3689
CA 29.9426 8.29214 61.8134
CA 7.85384 8.93805 68.0658
CA -2.39335 4.48643 57.2141
CA 10.3213 31.8403 44.5502
CA -4.18583 23.1059 15.1522
CA 41.0306 37.3909 57.6787
CA 23.2993 23.8167 84.2764
CA 1.03645 13.5952 33.2005
CA -7.46643 39.2365 52.6943
CA 17.698 0.640988 40.7648
CA 6.53975 29.4571 43.1491
CA -12.3252 22.6431 17.9478
CA 33.3854 16.7427 61.6905
CA 13.1376 23.6528 38.6805
CA 10.9859 31.6756 50.6555
CA 18.9105 14.5196 76.7277
CA 30.6357 22.2809 76.9049
CA 22.1848 17.9713 52.5148
CA 0.583881 13.0036 41.5394
CA 12.7059 16.3109 61.6617
CA 33.8735 35.6115 42.7701
CA 16.0519 19.9697 39.403
CA 1.2859 5.01204 61.5148
CA 5.85044 3.52697 67.9394
CA 6.7391 24.9584 64.5896
CA 2.38486 25.6021 64.6447
CA 30.3873 32.5481 40.7144
CA -19.0109 30.1501 16.8758
CA 11.5852 38.8214 76.9196
CA 33.7388 23.6228 56.4376
CA 15.2063 30.3775 61.0067
CA 6.55505 22.346 95.1656
CA 11.0341 33.281 48.2595
CA 17.8809 15.2191 78.3127
CA -5.67435 -0.771693 53.0286
CA 7.2581 13.0116 50.1165
CA 4.94191 -7.59558 58.6195
CA 12.4739 25.6691 56.2541
CA 36.9868 10.7314 60.7873
CA -17.1207 27.5551 18.6291
CA 15.6501 -2.01829 35.0512
CA 12.7892 38.5133 84.374
CA -5.56521 23.1074 16.5057
CA 31.317 34.7024 54.6137
CA -2.32452 29.6023 18.3985
CA 26.2838 24.133 75.9411
CA 11.6635 37.8884 78.5613
CA 21.7633 10.5676 34.9843
CA 10.729 8.17195 59.1869
CA 27.0901 13.8297 88.5186
CA 15.8511 -4.06729 48.6044
CA 27.2849 34.6766 63.026
CA 3.6712 35.6986 62.4168
CA 12.0785 38.6343 75.0369
CA 15.629 20.5049 71.836
CA -4.20544 30.0905 46.0943
CA 14.9223 11.9071 60.9818
CA 9.64435 28.3469 68.0671
CA 40.6287 11.3793 59.6171
CA 26.8432 -2.81648 45.9036
CA 18.0676 22.9671 64.5005
CA 6.64379 12.4363 26.6953
CA 20.44 9.93327 28.3794
CA -2.36654 32.5165 57.3316
CA -17.5713 34.4779 17.6262
CA 15.4365 16.3046 50.2773
CA 2.26883 23.7223 86.0101
CA 4.49413 25.0783 89.498
CA -11.796 28.3645 21.1446
CA 25.7274 21.6045 56.5671
CA -9.84296 26.5437 54.4264
CA 12.5897 35.8825 80.8494
CA 33.7078 25.6539 53.0882
CA 10.0489 34.5615 58.1028
CA 18.8783 39.3017 40.6944
CA 28.7879 18.4176 64.2236
CA 13.6731 29.8032 45.3911
CA -1.66515 23.5009 18.4923
CA 11.192 32.4754 59.1418
CA -19.9428 28.7597 18.7304
CA -4.64998 28.8371 59.4664
CA 22.3558 20.4503 87.6762
CA 9.99271 34.0283 79.1209
CA -5.44797 29.0689 40.578
CA 21.7749 7.94008 45.8099
CA 12.6186 39.863 59.3556
CA -13.6703 28.9628 56.896
CA 26.9483 15.3737 79.3385
CA 24.3608 37.7792 64.6838
CA 37.3206 25.7245 38.0603
CA 42.7919 19.3008 57.3323
CA -16.5591 29.3648 56.176
CA 17.7051 30.5429 74.7365
CA 36.4334 27.9147 48.8472
CA 12.4615 23.4546 55.6103
CA 30.7277 36.3838 50.9161
CA 35.1303 32.3353 44.743
CA 43.2663 11.3477 59.1708
CA 7.85934 36.9409 70.2904
CA 21.9479 31.9475 50.3208
CA 23.7452 27.7781 44.2418
CA 26.1512 33.9815 67.0273
CA 29.3813 41.578 50.3364
CA 39.4651 16.1706 62.8899
CA 5.42379 34.7545 83.2964
CA 14.9404 24.2806 39.2605
CA -2.14173 26.6636 27.2257
CA 25.0182 15.0852 38.4829
CA 29.3562 16.5921 62.9124
CA 10.6855 27.1418 69.265
CA 4.71646 -1.87302 62.6573
CA -9.72423 30.6803 46.1329
CA 15.1954 32.3043 63.9825
CA 3.58645 27.9515 61.3527
CA 13.2617 29.5459 47.7622
CA 20.6359 24.7949 47.3039
CA -1.69855 24.1796 28.847
CA -20.3375 30.8591 15.4069
CA 25.0971 14.6662 77.2535
CA 31.5015 30.5031 50.1833
CA 30.6458 33.9437 49.591
CA 46.5056 13.4834 64.9599
CA 21.2705 36.6707 45.5237
CA 20.3932 31.355 42.3966
CA 15.443 12.1859 40.9878
CA 13.2423 34.0264 51.5337
CA 17.2474 33.1538 67.9395
CA 8.21104 34.1968 73.2388
CA -4.89992 22.1051 39.4941
CA 18.5185 14.01 38.2087
CA 15.813 24.3042 46.5229
CA -7.58794 29.0408 58.4332
CA 30.2499 31.6522 47.5396
CA -3.94548 29.08 54.9287
CA 33.5273 30.0818 39.6862
CA -2.2058 1.96541 48.1084
CA 20.5651 13.2651 83.2701
CA 16.5078 22.6685 71.0972
CA 14.7555 24.6179 54.8019
CA 11.5177 5.59211 52.6789
CA -6.33137 6.46442 50.0448
CA 15.1369 22.2072 59.8195
CA -11.2892 27.7727 15.602
