489

CA -21.9743 8.04488 22.7133
CA 16.2158 18.9486 45.311
CA 15.9733 22.7797 40.0471
CA -26.1053 -18.8479 26.2417
CA 22.1074 12.0228 78.2656
CA 19.1714 35.7519 62.4201
CA 17.2515 32.9092 67.702
CA 11.7098 28.1984 70.3233
CA 2.70123 18.0568 69.8029
CA 24.4965 11.606 85.2999
CA 8.7998 -7.60401 23.1771
CA 18.2796 -14.0772 46.4708
CA -2.04831 12.2396 57.1379
CA -22.1942 7.03223 25.2166
CA -10.6101 8.94028 47.7873
CA 2.36198 10.5974 49.2825
CA 6.92112 26.5343 57.7928
CA -15.0151 37.7789 44.2121
CA -4.02541 21.131 51.4815
CA 11.7447 5.62228 62.6392
CA -7.77075 33.3133 44.7857
CA 0.245658 10.747 50.5268
CA 7.41002 8.60073 54.4121
CA 3.47998 -5.46824 52.9879
CA -7.15285 12.786 56.3536
CA 17.1588 31.8394 71.1619
CA -7.76207 25.7913 45.4301
CA 23.7085 -1.26588 51.3246
CA 12.4736 18.9142 34.0712
CA 10.1361 1.49503 40.184
CA 11.4205 9.28349 32.6088
CA -4.44483 6.99696 43.5182
CA 23.6285 -9.38456 44.4015
CA 3.38518 19.0941 61.3285
CA -8.60062 37.5446 40.2492
CA 13.3614 -11.7887 66.0522
CA 12.0926 17.1729 31.7095
CA 5.31614 4.49444 59.3167
CA 16.6203 -12.3822 64.2352
CA 17.4256 24.1112 27.3266
CA 17.1612 16.3844 17.9161
CA 14.6665 -7.56955 42.8792
CA 19.0284 9.26489 67.0004
CA 0.0891503 23.3796 37.9276
CA 11.1306 13.7898 63.5029
CA 0.28234 11.8497 46.8316
CA 10.442 14.7829 56.5215
CA 16.0611 -10.9657 62.1163
CA 17.0932 29.6205 69.6204
CA -4.2728 24.459 52.7384
CA 9.52541 -28.0011 66.5695
CA -10.9076 19.7794 57.2016
CA 8.8669 18.5229 19.7079
CA 16.3522 24.1301 25.6664
CA 21.538 18.3665 76.5289
CA 31.8419 6.80449 41.7015
CA 20.4328 34.2436 57.3726
CA 2.3669 -6.52105 55.9598
CA 1.35374 21.5978 63.1001
CA 2.20178 18.7166 64.7811
CA 21.7938 -1.66174 53.277
CA 14.9386 25.2467 33.9685
CA 1.39892 -4.75213 53.2521
CA -4.49448 16.22 56.3267
CA -16.1796 2.00473 50.3473
CA 15.1465 13.7398 63.8755
CA 9.10153 13.0105 62.1003
CA 23.2644 3.56981 55.4554
CA 12.3135 3.18177 51.7663
CA 15.711 16.0714 33.8001
CA 21.5995 7.64411 22.7226
CA 11.8734 6.30975 65.7299
CA 12.7804 8.98889 60.4571
CA 19.2531 -5.24643 57.6034
CA 20.901 -0.0320465 52.5933
CA -10.3526 19.4983 53.7807
CA 23.7594 30.6507 64.1145
CA 15.5925 -7.21664 64.0241
CA 0.987586 7.66736 55.4498
CA -20.9021 1.58799 69.6224
CA -5.83706 10.0058 64.9746
CA 18.5412 4.93709 73.9854
CA 3.13861 22.6711 62.3557
CA 17.9817 33.2693 62.4615
CA 15.4988 15.8564 30.7731
CA -19.9208 6.79142 22.5795
CA 14.3703 20.1575 19.844
CA 2.88044 11.4148 60.4201
CA 9.12217 17.3 36.3613
CA 10.7646 26.855 58.9182
CA 1.42745 13.8189 50.3254
CA 3.2687 24.2956 27.9665
CA -7.63382 10.5883 51.2383
CA -19.9504 -0.426581 68.6944
CA -2.89853 33.9065 46.8191
CA 8.50748 19.4374 21.2686
CA 22.2688 16.3232 77.7803
CA -4.14547 23.1363 46.2436
CA 30.9757 8.1065 45.4544
CA 5.35966 21.3275 31.6181
CA 13.7754 19.1058 72.3776
CA 16.4992 4.4979 52.9193
CA 5.09668 23.4423 64.9894
CA 18.6404 31.3746 69.0376
CA 13.4392 22.8332 69.4013
CA 30.2647 11.2622 21.4086
CA -4.45455 -17.8443 74.3531
CA -26.7823 -17.4617 20.8865
CA 8.96931 13.1472 71.8832
CA -18.9815 -0.548062 22.6173
CA -7.78784 7.51009 48.7397
CA -23.1178 -27.0394 16.8226
CA 15.8995 5.65297 33.2795
CA 5.62048 28.5182 63.1325
CA 15.3772 -10.3649 66.0359
CA 26.7537 -21.563 65.1913
CA 22.0447 11.5452 24.2081
CA 15.1231 23.5919 53.7098
CA 8.00098 17.7265 55.0045
CA 8.05972 27.8627 58.3073
CA -8.43702 28.3225 22.0237
CA 10.2078 24.3573 74.4454
CA -2.85236 19.638 48.5228
CA 4.08532 32.5425 21.5835
CA 11.1853 15.8999 58.332
CA -10.2553 33.9398 37.207
CA 3.46388 32.1832 18.4953
CA 23.98 20.1423 63.3834
CA 28.4158 8.24325 43.6088
CA 12.5416 27.5559 60.5168
CA 16.0632 26.5214 69.1417
CA 19.7317 30.0353 35.7145
CA 13.7465 19.1514 16.6192
CA 13.2004 22.5924 55.1616
CA -1.31792 20.1277 62.9405
CA 18.1017 7.32164 45.245
CA 19.639 22.8563 58.7965
CA -4.72592 38.7612 43.9342
CA 14.207 12.6503 37.8595
CA 18.976 -15.6994 62.9914
CA 11.2277 16.7963 19.5195
CA 16.3935 20.6661 67.691
CA -5.75193 8.14525 64.2364
CA -5.28666 20.5856 47.5339
CA 11.6059 19.0795 38.678
CA -4.4065 10.0084 41.5157
CA 7.83616 2.88452 58.6743
CA 24.0851 32.8367 67.6324
CA 7.43123 20.1016 69.6299
CA 1.64161 29.9045 18.9289
CA -5.32975 24.2211 44.6022
CA -10.0213 11.1865 53.3936
CA 11.1037 -1.9506 57.8672
CA 18.1041 33.6265 57.667
CA -2.20371 17.7545 20.4117
CA -11.5553 27.8862 44.8773
CA 22.0393 31.8136 66.4022
CA 9.88584 25.0537 29.0314
CA -0.373822 -16.9201 73.4906
CA -0.238463 11.4437 53.011
CA 5.01072 4.19283 52.1032
CA 14.5084 20.4752 52.2844
CA 16.1059 23.2775 32.7573
CA 20.9749 -1.94634 47.7209
CA -4.57224 34.9943 48.1456
CA 11.4285 18.341 53.9475
CA 11.206 -7.93056 67.4261
CA 5.34243 -35.8726 50.3697
CA 6.46145 -35.1707 51.9576
CA -1.69538 26.6958 64.5123
CA 0.701056 34.8293 68.3753
CA 10.8383 20.3873 69.5104
CA 20.7137 16.1816 69.2191
CA 11.402 19.8581 32.0596
CA -22.0559 20.8921 75.385
CA 18.7572 39.1052 62.8225
CA -1.43939 23.2959 16.4652
CA 17.7926 1.79095 56.7546
CA 17.22 -4.70347 50.0964
CA 19.926 7.8983 45.8525
CA 13.486 20.3799 57.8123
CA -3.18975 -6.35002 43.1189
CA -3.37688 36.5255 25.3247
CA 11.3575 7.08065 25.1816
CA 5.8694 32.3911 62.993
CA 18.8552 13.1305 67.7706
CA 7.93612 16.4295 74.1323
CA 18.2497 20.9715 77.8308
CA 10.1689 16.2843 22.3827
CA 30.7084 12.0236 40.943
CA 17.1599 2.58247 55.1192
CA 24.9964 -1.88693 52.7468
CA 21.0654 -2.52365 54.7377
CA 4.66924 21.9826 29.7958
CA 18.0671 26.1675 35.3443
CA 22.1616 -5.22759 48.2553
CA 7.58037 13.2518 57.4272
CA 7.19908 16.0983 25.5719
CA -22.2783 -25.4271 19.5054
CA 9.38278 17.577 23.5609
CA 15.3212 0.0708957 51.9977
CA 3.15457 18.4736 49.0243
CA 16.6384 18.9187 33.5684
CA 15.9438 -8.05954 54.2256
CA -1.35515 18.551 48.1379
CA 5.49121 -5.40736 59.1685
CA 9.98556 25.9646 27.409
CA 32.0621 10.2814 41.1278
CA 6.76252 5.88124 27.3704
CA -0.545535 29.004 18.8882
CA 15.0322 19.1707 67.6868
CA 24.0143 18.0918 77.0817
CA -3.43254 23.0556 15.1264
CA 17.5512 9.04174 63.414
CA -9.49705 12.4889 51.3222
CA 33.8039 8.14845 44.0497
CA 26.5361 -4.19107 52.4007
CA 14.3029 23.444 34.217
CA 13.6207 19.4504 27.1013
CA 0.147208 13.0495 48.5319
CA 10.7645 17.6627 35.2534
CA 15.2058 19.7087 55.4005
CA -9.05437 -4.30895 48.9674
CA -8.4345 32.0141 19.4167
CA -0.6312 20.9354 60.8254
CA -0.865128 26.0023 12.9157
CA 21.0335 17.2197 45.9694
CA 7.54786 -6.26264 25.0614
CA 8.36568 36.1115 62.2788
CA 13.6183 17.9715 66.8879
CA 0.291152 3.19902 53.8842
CA -2.43537 17.6357 43.2433
CA 16.5519 -16.3242 45.4863
CA 15.9584 14.8947 39.1966
CA -0.682001 2.7383 47.6213
CA -5.56874 22.9273 20.7792
CA 32.7036 12.1495 23.0321
CA 2.11601 8.7322 49.2522
CA -2.03834 21.7098 38.034
CA 15.9197 11.8353 78.5478
CA -25.2769 6.27658 22.9354
CA -3.29476 17.3879 18.6702
CA 6.88516 20.5918 19.7875
CA -6.74684 12.2591 54.4218
CA -21.6759 -24.258 24.2197
CA -6.92004 27.5715 17.5076
CA -6.36755 21.3548 61.0454
CA 6.70927 21.3519 71.2552
CA 11.0726 12.4725 27.8491
CA 4.35947 25.6528 73.9502
CA 19.7104 8.23382 52.8003
CA 0.736644 20.7219 17.7288
CA -22.1953 2.32074 66.8675
CA 14.5183 24.3143 66.2575
CA -0.0373429 -12.274 47.8123
CA 19.5745 37.3911 60.8617
CA -1.05436 27.4524 61.3163
CA -2.39629 8.39398 66.1332
CA -4.95594 8.17965 62.3763
CA -0.205883 6.50677 49.9059
CA -3.70613 13.7346 53.1872
CA 10.9258 10.3297 81.9493
CA -9.76651 15.5932 52.025
CA -3.72177 12.3857 54.9947
CA -0.156891 18.7615 62.1227
CA 2.92943 27.1414 24.6565
CA 15.5375 -25.3603 60.2179
CA -6.44332 15.0496 56.8346
CA 3.08865 23.6149 26.1395
CA -6.72628 4.56323 46.2716
CA -10.9918 30.894 39.3335
CA -5.27029 20.723 45.6687
CA 11.4139 17.9021 56.6533
CA 6.68934 29.2706 64.3952
CA 15.0409 12.0905 47.4838
CA 3.82205 -15.6249 36.3525
CA -20.3143 2.53912 19.8217
CA 18.2735 30.3756 36.7846
CA 20.2071 13.2664 70.5014
CA -24.1879 6.64106 25.7403
CA 16.5816 31.0791 26.9746
CA 20.9117 27.5076 72.3766
CA 12.0152 35.5676 67.619
CA 15.7636 -12.4191 38.5789
CA 22.2738 -19.5369 53.4222
CA 12.9689 -29.6546 46.4424
CA 2.72904 30.8453 69.8324
CA 21.6148 -4.89572 50.3618
CA -2.32029 7.4361 58.0973
CA 11.5505 8.38985 50.8664
CA 20.6126 38.8892 60.4136
CA -10.2716 28.7475 46.0696
CA 12.2145 15.2735 69.0258
CA -6.65375 13.5787 52.9685
CA -12.649 10.61 51.4363
CA -9.41136 2.49011 46.7471
CA 7.7836 23.8791 28.295
CA 20.0767 13.9333 76.9774
CA -2.55094 19.2552 44.7884
CA -22.9636 -23.3283 21.8837
CA 8.90819 20.8492 60.8794
CA 3.19892 26.3664 32.3645
CA 15.9797 34.5574 69.7701
CA 11.5346 22.0544 60.509
CA -9.64706 6.34267 49.5195
CA -1.25834 21.8828 46.8451
CA -8.07348 30.5561 47.4411
CA 23.2481 -1.36186 54.8575
CA 6.44641 28.9633 17.248
CA 12.0349 12.5458 64.7617
CA -20.6865 1.58059 65.8389
CA 14.113 33.194 65.5321
CA -8.03427 22.8682 63.7185
CA 19.4354 -7.2867 51.8942
CA 12.379 22.7263 34.4129
CA -25.4045 -28.4405 19.1023
CA -10.304 26.5243 44.9357
CA -2.72038 21.517 17.1104
CA 10.3671 -2.24209 48.6146
CA 12.218 10.7138 27.098
CA 22.8031 19.7392 47.9565
CA 18.6933 12.1325 71.0801
CA -3.08846 8.99519 60.0953
CA 11.4817 -9.85394 66.1026
CA -12.6285 -0.898248 52.0341
CA -7.24209 10.0951 58.8722
CA 18.583 -2.76917 55.6424
CA 17.0254 10.2742 51.0268
CA -2.80953 24.5436 39.1235
CA 17.7978 6.26957 33.0978
CA 9.58083 27.2994 76.067
CA -7.69265 0.341224 46.9272
CA 2.89237 11.0831 51.4091
CA 24.8097 20.3023 48.669
CA 18.8578 23.8961 60.0811
CA 13.242 6.89643 46.9697
CA 14.6299 37.7174 60.9744
CA 9.96415 19.6369 23.9998
CA 18.7869 28.2848 70.0587
CA -20.9462 -21.865 22.8157
CA -22.072 5.43472 23.5594
CA 4.47833 -1.61515 59.6701
CA 28.0956 13.1255 23.772
CA -8.33489 21.7464 61.4597
CA 35.5955 9.52237 40.1032
CA -15.1451 36.063 31.4256
CA 16.8402 -33.5437 59.9772
CA -21.1247 -21.8607 24.6073
CA 12.0201 13.1779 67.7407
CA 18.2394 24.9183 71.6337
CA -0.199541 29.0291 68.2395
CA 0.262776 6.33049 44.9252
CA 5.65703 24.6351 19.0786
CA 21.4315 0.195934 54.4231
CA 20.7697 10.4672 40.7651
CA -4.16273 8.18647 56.2993
CA 35.8451 8.76606 47.7441
CA 37.6606 10.1907 48.8192
CA 16.3451 -11.3435 47.1325
CA -2.03435 20.6108 52.8535
CA -4.71719 18.7327 47.9059
CA 25.649 -23.1734 63.3553
CA 23.2273 -21.5789 67.0058
CA 5.23687 3.54937 54.2079
CA 11.5146 15.4426 61.4777
CA -3.34325 2.45095 56.4676
CA -9.31308 24.0557 18.7067
CA 17.6213 9.9902 43.7167
CA 13.447 7.83031 78.1798
CA 20.5346 15.9627 31.3774
CA 21.3762 11.0359 75.0467
CA -22.6549 1.33438 29.5295
CA -3.66816 16.791 48.1138
CA 24.839 -14.1352 64.5102
CA 19.3515 3.79796 28.8809
CA -1.45061 24.632 67.4166
CA 17.5168 21.02 70.6778
CA 2.91231 20.7192 65.389
CA -7.46532 6.15849 29.4212
CA -20.5084 21.7078 76.1008
CA 10.1115 5.36442 43.6738
CA 11.4502 18.1964 27.5727
CA 10.2096 25.2151 70.0164
CA -6.37973 7.83359 59.4832
CA 26.0917 8.38596 84.8688
CA 17.1919 31.4813 65.0281
CA 0.542713 10.2049 48.3359
CA 3.18202 -32.8512 53.1186
CA 15.2857 20.1906 60.4424
CA -2.69648 27.2862 17.9534
CA 25.5573 5.72431 34.5458
CA 11.2163 18.3637 61.5668
CA 18.1221 11.6533 66.2713
CA -0.772566 19.1926 65.1676
CA 12.7368 9.54199 79.6852
CA 16.1795 -9.06401 73.5354
CA 16.1007 7.9068 74.2982
CA 4.82237 30.6294 19.8541
CA 2.48676 24.1179 30.7761
CA 8.87516 29.5901 73.9614
CA -0.286558 22.5465 19.4583
CA 13.4989 24.3236 38.484
CA -17.968 -21.7369 24.269
CA 18.3277 -10.3042 48.5649
CA 3.22945 6.67482 54.8881
CA 26.3887 18.4572 57.5155
CA 7.30688 6.14438 51.7348
CA -2.74569 32.7488 68.7462
CA 20.2152 -10.8879 61.6099
CA 20.2366 29.3433 67.8847
CA 26.5118 22.1259 52.0087
CA -25.4264 -5.68773 22.0412
CA 13.2688 -8.34274 66.0109
CA 8.38424 21.3292 35.1393
CA -5.87646 9.13832 50.656
CA 13.2463 8.08065 72.1087
CA 0.714188 26.8293 72.1601
CA 29.9864 13.8449 25.3743
CA -4.12469 4.5465 51.3791
CA 18.8692 -0.651123 48.1455
CA 16.3087 20.3814 39.6498
CA 10.4925 -7.92212 23.8743
CA -3.068 16.5816 59.5649
CA 14.9219 -0.686856 48.2546
CA 21.7262 29.0284 65.1995
CA 9.69152 13.5305 55.3764
CA 1.02246 13.0495 59.2167
CA 24.8846 9.54859 45.9647
CA 13.5759 -7.4198 51.3657
CA 6.78855 -3.02875 58.4164
CA 22.1279 14.2123 79.7151
CA -6.1403 17.0978 47.2799
CA -4.14064 16.7509 45.3136
CA 9.44481 -1.11774 58.2496
CA 14.3904 21.2498 56.3137
CA 2.05563 -4.00106 32.264
CA 24.8902 22.4669 77.6855
CA 28.9274 -17.4662 64.514
CA 16.0745 21.4115 58.3983
CA -2.87028 -3.72711 47.9396
CA -21.3771 1.98471 25.8316
CA 13.7567 21.3152 36.252
CA 30.0957 14.7354 43.0127
CA -20.0864 -3.62612 75.5024
CA 19.121 12.3611 76.2435
CA 20.4551 13.3188 60.4309
CA 13.5066 9.24947 31.4974
CA 41.7494 9.91969 50.4906
CA -0.128404 27.7377 69.6729
CA -18.3989 1.402 64.1205
CA 0.858799 31.6971 20.8015
CA 13.1694 25.9249 28.3938
CA 7.41962 18.6861 28.7786
CA 32.0603 8.39388 40.45
CA 18.1267 13.998 43.6227
CA -22.5661 -0.0265781 21.5158
CA 21.5391 13.9008 75.3083
CA 18.4901 4.17449 30.8697
CA -6.22349 15.5532 49.3149
CA 7.00201 20.0977 24.3127
CA 8.46935 12.6472 54.3053
CA -27.1551 6.64722 22.6203
CA 26.8867 -13.1004 64.8936
CA -9.7555 4.04979 49.6205
CA -23.2757 -19.6486 23.4596
CA 14.7657 10.5496 49.763
CA 23.6326 38.0717 60.6967
CA 24.6185 -6.09161 49.9312
CA 20.2124 4.79561 52.6399
CA 7.21982 3.30047 40.147
CA 9.55007 37.7894 58.2611
CA 7.74475 26.1573 59.7048
CA 17.0457 25.5943 24.7196
CA 1.09756 29.5255 23.6567
CA 26.8615 -10.6048 67.7255
CA 17.0263 1.27615 51.3559
CA 25.9541 20.3875 50.4618
CA 9.10135 20.876 30.1245
CA -11.6917 28.162 17.0642
CA 16.0932 11.4788 63.7781
CA 24.5435 21.9429 58.6766
CA 0.0707112 16.9888 49.2757
CA 14.3276 24.0284 31.0434
CA 6.51309 7.07001 34.2049
CA 33.6912 14.7781 41.1451
CA 7.81321 16.8756 21.1107
CA -3.73915 23.1927 17.5177
CA 20.5078 11.1176 28.1101
CA 10.344 10.9539 61.4219
