489

CA 17.2794 7.15856 41.0145
CA 10.0621 20.2271 51.6612
CA 20.2859 32.3719 56.565
CA 16.9295 18.0133 66.5959
CA 18.6806 37.7843 69.9516
CA 12.6598 30.6972 48.5961
CA 28.4644 44.269 56.1068
CA -26.0531 28.9047 16.9277
CA 11.9301 37.3162 83.5017
CA 5.50462 17.4371 38.1504
CA 35.9596 24.3622 46.0134
CA 11.3792 34.0838 77.7934
CA 8.71026 37.5825 62.2659
CA 30.0831 7.85436 45.4054
CA -6.67145 20.2855 11.4314
CA 1.90803 17.7693 61.8043
CA -3.36363 19.3937 36.8367
CA 3.21266 15.5275 58.5084
CA 15.6259 40.2058 62.5537
CA 12.0696 35.5968 82.3227
CA 42.4768 40.9266 62.1477
CA 21.2786 39.2502 53.471
CA 39.3831 31.4423 52.3777
CA 36.9793 15.7823 54.0576
CA 12.3226 19.0253 48.5931
CA 32.0521 35.882 50.1794
CA 20.1437 35.7063 58.4609
CA 34.1483 35.9592 46.0366
CA 21.3158 25.4078 46.0627
CA 39.0303 19.3481 48.6282
CA 10.5469 21.689 63.3931
CA 40.1319 8.45977 54.7783
CA -2.76386 31.5326 47.6751
CA -0.323152 21.2896 58.5535
CA 7.35022 34.9891 64.8663
CA -6.80273 20.9658 31.0732
CA 8.21483 39.7657 63.2691
CA 42.3084 35.3256 49.9951
CA 22.6284 12.747 36.1716
CA 22.3075 10.676 47.8551
CA 33.7159 44.7903 58.9627
CA -7.51783 42.9741 15.7377
CA 17.8429 13.5398 62.8883
CA -3.30587 16.2787 37.9561
CA 16.1827 2.90791 40.9298
CA 42.8504 10.0622 50.1689
CA 16.6635 22.0883 51.6778
CA 3.09431 18.0286 58.7542
CA 9.74978 39.598 54.6086
CA 26.1995 16.1462 55.2452
CA 44.7838 45.9754 73.4662
CA 27.0187 27.4432 36.4958
CA 6.91329 12.7978 48.1701
CA 14.2545 12.2226 62.2598
CA 15.0822 41.1763 54.0321
CA 20.7252 30.0516 37.8038
CA 9.97872 35.5456 89.9865
CA -12.8204 35.5961 23.7667
CA 7.38613 33.2289 45.0827
CA 14.2441 36.8317 50.4516
CA 13.5065 37.2718 48.8247
CA 12.8911 38.5021 79.768
CA 28.2895 19.1481 42.5313
CA 31.9082 32.5879 55.9155
CA 39.3345 25.1584 44.8677
CA 21.8244 9.77515 43.6366
CA 30.2369 42.7494 64.951
CA -12.8791 26.7472 23.8336
CA -10.5594 25.7886 29.731
CA 14.59 16.6334 55.7711
CA 20.4861 9.63533 38.6565
CA 40.022 46.8779 65.4854
CA 38.6899 16.4936 55.0418
CA 5.75245 9.34456 56.8401
CA 19.2085 22.0096 56.7467
CA 27.8229 43.4208 61.5471
CA 43.2005 24.1406 41.1297
CA 42.1616 51.7776 63.4473
CA 11.3017 37.0971 74.8464
CA 35.0559 26.4769 47.7697
CA 13.992 39.9894 51.8958
CA 11.766 30.1197 82.8144
CA 28.0441 29.5491 49.3712
CA 25.0958 29.2664 51.338
CA 18.6118 22.0927 51.3891
CA 16.8606 31.0075 39.4487
CA 41.8262 39.0258 61.1184
CA 17.5608 42.4731 63.41
CA 30.0777 21.6592 87.8475
CA 33.0962 38.4076 64.1791
CA 23.2128 14.6817 66.5589
CA 3.31599 26.8236 58.9573
CA 9.11093 24.9906 47.4384
CA 13.0068 4.99862 60.874
CA -10.6972 41.7597 16.1504
CA 6.16963 31.5197 90.2606
CA -5.39896 18.81 5.94071
CA 43.0691 16.2508 58.3571
CA 35.09 9.03454 50.1302
CA -15.165 23.5648 15.7278
CA 24.4107 9.09464 47.267
CA 36.9613 33.2185 56.408
CA 24.9402 27.6317 53.1715
CA -5.04513 34.7767 22.5894
CA 24.237 31.7005 38.5402
CA 46.5283 31.1553 50.0424
CA 42.6765 39.5752 66.0305
CA 14.4702 17.5689 61.1981
CA 27.5171 39.1957 60.1368
CA 21.823 33.4029 52.4826
CA 14.936 36.4377 81.9506
CA 28.0271 16.0096 50.9938
CA 43.5498 15.503 48.4156
CA 24.1948 41.0935 61.9754
CA 33.1604 32.9596 44.9456
CA 16.2153 26.4716 42.4069
CA 10.126 35.2807 85.9351
CA 20.4492 8.41072 35.4271
CA 29.6777 19.6771 56.0829
CA 44.4042 31.7788 49.7842
CA 41.1076 39.933 50.8426
CA 20.9533 28.6555 50.2704
CA -3.94074 26.1903 21.048
CA 13.6446 42.0157 83.0346
CA 18.1473 23.9254 56.5222
CA 17.0289 28.2717 43.4523
CA 19.5729 31.8205 44.7429
CA -12.9743 21.3677 23.491
CA -2.08602 19.8391 29.6518
CA 19.8632 24.4077 57.4558
CA 32.3416 17.3812 68.3478
CA 21.8726 20.5557 64.2044
CA 21.1127 6.51256 63.8908
CA 41.8324 36.7322 52.6009
CA 17.5913 44.7944 53.3048
CA 8.34492 16.9988 48.8222
CA 22.8406 11.4986 50.2916
CA 1.22463 34.2535 54.5495
CA 13.5296 27.9399 42.6021
CA -0.750177 20.1107 32.333
CA 14.987 44.2625 50.5297
CA 31.1491 42.0571 67.6486
CA 22.9081 39.6641 68.8482
CA 11.241 3.6126 30.7718
CA -6.93902 24.0896 45.3099
CA 23.5487 24.6863 65.4405
CA 25.2993 15.976 71.6588
CA 19.415 40.5099 85.1357
CA -4.15938 27.995 26.3173
CA 9.00546 8.83479 57.1616
CA -8.22662 20.7062 2.28489
CA 16.7432 18.3985 85.2219
CA 17.1675 37.953 76.5925
CA -1.03397 14.6178 33.1183
CA 14.4626 29.0909 38.0291
CA -4.35776 19.5322 7.42828
CA -8.28201 24.3686 15.0998
CA -23.0562 34.2026 17.1863
CA 10.9371 18.6727 57.8248
CA -0.000729689 20.3986 48.365
CA 12.1539 39.5003 70.9369
CA 16.965 14.8501 66.0764
CA -10.3835 38.6571 19.3339
CA 32.3354 17.0036 79.5883
CA 3.95806 21.1141 63.7651
CA 27.4409 37.3092 49.8871
CA 12.4642 37.9071 65.0238
CA 5.41362 26.1215 60.8898
CA 39.4189 26.4845 42.2227
CA 17.7322 42.3821 76.4259
CA 38.3113 41.5536 49.9752
CA 0.453095 6.484 56.2195
CA 21.0885 18.6645 77.9736
CA 12.3925 17.9074 59.2818
CA 35.8683 21.0974 73.3226
CA 27.8389 5.17452 49.9183
CA 0.838705 29.2784 52.828
CA 17.0016 24.4733 42.1767
CA 1.89388 18.1189 35.8734
CA 22.4175 20.7989 79.973
CA 24.7516 21.5443 56.2044
CA 10.4897 15.5035 47.0773
CA -5.64776 26.9624 17.4087
CA 36.2453 45.0957 67.0942
CA 17.7552 21.299 83.1377
CA 34.7747 15.0676 79.3288
CA 25.4561 14.7168 75.3914
CA 14.1942 39.2247 73.8699
CA 25.5264 26.5961 48.4472
CA 4.30687 13.5977 61.2196
CA 20.7779 17.649 88.285
CA 15.1356 28.9087 55.8608
CA 11.8429 4.55969 35.2524
CA 29.7981 8.79167 38.8546
CA 25.8798 6.28047 41.3515
CA 7.79077 44.1774 55.4997
CA 8.29841 22.6054 64.2827
CA 25.2122 18.251 62.1832
CA 17.2164 -1.79957 35.599
CA 21.9827 15.023 55.4962
CA 8.71285 41.7522 39.8449
CA 23.1655 34.5397 46.5953
CA -3.85642 34.2168 52.7378
CA 7.36718 34.6604 61.1718
CA 38.3858 42.6453 73.2913
CA 27.1825 17.6745 66.2007
CA 5.45283 31.5917 61.7043
CA 23.9519 17.7383 85.061
CA 9.39525 14.7688 41.3015
CA 4.50661 23.9057 47.3024
CA 23.1751 36.5572 45.5894
CA 38.9176 21.3507 55.0669
CA 19.9207 30.1391 39.5506
CA 12.9824 9.1547 60.1193
CA 33.3138 17.2242 41.386
CA 17.5218 11.4335 46.775
CA 40.5306 12.0404 58.2865
CA -3.16454 17.7931 31.8955
CA -7.72558 34.3703 17.0509
CA 31.0375 16.5574 46.644
CA 28.5591 8.88564 45.475
CA 35.3747 15.5082 43.537
CA 17.6109 31.5726 46.774
CA 24.9122 48.607 52.4345
CA -17.2275 36.7769 24.5282
CA 34.7566 9.11013 46.8144
CA 20.0884 39.8802 44.9626
CA 8.53526 17.084 54.7722
CA 0.930939 25.2371 28.7157
CA 8.40637 11.6591 57.5554
CA 12.493 4.05086 37.0095
CA 8.4596 35.4448 57.9815
CA 43.6729 27.1771 36.9242
CA 32.3939 36.6915 54.1604
CA 23.712 1.72467 58.7489
CA 8.9277 39.8286 40.2308
CA 11.6642 36.084 79.4433
CA 32.1086 12.233 68.1408
CA 17.0433 20.9088 47.9838
CA 25.5968 1.39485 41.7507
CA 16.0794 5.40362 47.2111
CA 27.4387 21.506 77.7459
CA 7.3112 23.3987 53.3399
CA 16.5305 23.5317 54.9763
CA 32.5559 20.8827 74.0516
CA -12.9559 36.4734 18.1069
CA 36.9123 41.2665 64.5322
CA 2.7326 23.6273 56.9209
CA 6.85007 9.48516 61.3205
CA 37.7135 17.2924 59.1384
CA 33.3131 32.6136 39.4677
CA 29.0935 7.9418 48.656
CA 18.7596 43.8592 54.7418
CA 31.9688 8.11894 69.6637
CA 5.38601 6.80281 60.8493
CA 32.4746 46.4323 54.1699
CA 10.4665 38.9852 36.3543
CA 25.0384 41.3693 71.7024
CA 2.92977 31.6995 61.9704
CA 26.1795 12.1684 74.5635
CA 21.2806 33.057 54.6613
CA 6.44936 22.8492 51.6983
CA 42.0591 36.3288 47.9374
CA 22.4601 14.9247 59.9156
CA 33.6207 8.52228 48.9296
CA 22.3918 12.156 45.9842
CA 0.981412 18.3106 47.8927
CA 24.4096 20.5946 63.1514
CA 16.05 21.4815 45.6716
CA 45.6643 16.4066 49.0018
CA 34.6305 44.0735 65.0754
CA 7.03508 33.9531 37.1637
CA 43.6349 43.9179 68.945
CA 33.7913 31.9216 41.9235
CA 10.7864 46.5111 83.9809
CA 27.3309 23.4229 66.1219
CA -0.701692 33.3103 52.8758
CA 33.0469 16.6858 43.6959
CA 15.374 35.8936 59.9566
CA 39.021 6.80436 51.1331
CA -20.2532 28.1764 16.7784
CA -1.46388 23.8307 27.2332
CA 16.5831 27.5451 53.7643
CA 41.2301 34.1492 53.0375
CA 18.9489 42.2164 81.6634
CA -1.01374 34.5897 59.8727
CA 26.92 28.4196 51.0698
CA 20.983 20.3746 57.075
CA 10.6795 13.605 50.5854
CA 31.1313 21.3182 38.0441
CA -4.83158 20.813 31.1337
CA 2.05427 21.6382 50.0344
CA 0.609981 14.9198 30.9865
CA 30.2623 35.7357 51.9419
CA 20.4287 39.5933 70.2339
CA 27.4793 22.154 56.1643
CA 26.7563 0.308686 40.0724
CA -4.67334 16.7635 4.23273
CA 20.5062 31.7026 40.2701
CA 41.3314 13.1421 45.4052
CA 24.2529 25.6871 74.7078
CA -2.22726 17.8926 7.41891
CA -3.30638 32.6395 46.2074
CA 9.43096 6.79765 59.7823
CA 44.5868 18.3393 36.7015
CA 25.9339 5.18029 58.1791
CA 25.0765 13.8199 59.6852
CA -10.4117 28.3949 18.4335
CA 9.21592 42.3764 36.2157
CA 11.1831 6.46734 32.1024
CA 18.4444 4.11172 62.983
CA 12.6581 7.21041 40.3122
CA 38.7684 16.2479 56.9634
CA 6.66944 27.7634 92.0549
CA 17.9425 14.5045 58.9538
CA -0.0151885 35.829 47.0413
CA 24.7645 2.68433 57.3234
CA 33.4189 28.3875 44.1075
CA 44.5402 18.9895 38.88
CA 44.2288 19.0338 45.2595
CA 13.2268 34.5005 48.499
CA 40.7964 42.6093 65.2598
CA 27.323 46.1102 65.3508
CA -22.9051 30.2241 16.7661
CA 38.0644 25.5531 39.9983
CA 27.7425 22.0362 84.6696
CA 15.573 11.0267 43.0071
CA 27.2294 18.5558 44.7534
CA 22.0416 41.213 67.3051
CA -11.5543 26.968 20.9195
CA 22.5199 0.816492 36.425
CA -2.18473 37.9935 54.9807
CA 3.0591 34.9289 36.1165
CA 19.8852 43.4889 51.4878
CA 25.6724 5.23309 64.1979
CA 45.9516 17.3989 55.2252
CA -0.144959 29.8928 48.8409
CA 31.6647 15.3519 68.1741
CA 37.6093 14.1818 59.8451
CA 24.6677 4.44573 61.8658
CA 27.3062 25.4135 41.1048
CA 27.7434 22.0942 61.8445
CA 1.81601 22.4897 45.7599
CA 13.7657 3.01238 34.9225
CA -0.565674 25.0213 23.6319
CA 10.2034 21.8423 58.372
CA 1.21111 19.7117 30.1192
CA 40.9889 39.2016 53.7578
CA -2.90191 26.9964 47.5776
CA 5.64532 28.9719 62.4434
CA 27.0612 30.6141 40.3317
CA 4.03725 13.5335 58.5997
CA 27.1141 42.3798 59.9106
CA 36.4271 15.8036 58.9318
CA 7.59606 37.4505 35.0815
CA -0.994648 19.391 43.4971
CA -6.92928 21.1725 14.6482
CA 13.9839 37.5237 72.9986
CA 20.313 -3.26975 32.4917
CA 8.87805 34.7416 50.0063
CA 13.3968 8.37132 35.9039
CA 38.0918 38.6199 65.5273
CA 41.2285 38.9591 57.7931
CA 5.52825 39.1313 35.6565
CA 13.0024 47.731 86.1629
CA -6.84728 18.9122 10.2458
CA 29.519 21.6779 71.9419
CA 16.4409 46.7971 64.034
CA 23.9318 35.0342 43.7704
CA 25.1033 11.571 78.4119
CA 26.8454 23.5675 75.5982
CA 23.0176 22.7215 74.04
CA 20.2175 46.6398 51.3632
CA 19.7829 -1.82536 57.9925
CA 38.6449 7.69207 53.6774
CA 32.2027 7.7264 73.8651
CA 16.9214 12.9222 58.2536
CA 13.4402 26.2723 57.5805
CA -3.27747 18.0454 39.7936
CA 23.9644 11.7626 85.7226
CA 33.6639 15.4077 54.7238
CA -9.02714 22.0989 1.04844
CA 18.4515 16.449 42.9132
CA 38.6261 15.5448 40.9706
CA 42.2053 21.7706 41.6062
CA -17.1207 27.5551 18.6291
CA 31.9799 32.529 46.7199
CA 19.7267 15.4492 59.2719
CA -5.56521 23.1074 16.5057
CA 35.8102 5.3256 56.2732
CA -9.35135 35.5802 19.4397
CA 20.827 23.1016 58.9692
CA 15.3452 8.39623 37.7669
CA 15.7823 11.3011 38.6364
CA 19.4063 24.1851 61.375
CA -13.5429 41.4165 16.0784
CA 8.85708 10.6052 39.1899
CA 42.827 5.77981 50.7375
CA 15.5333 8.43018 62.2833
CA 31.1262 18.4962 76.1803
CA 0.536268 16.2848 58.2263
CA 31.8393 3.38672 43.3305
CA 19.1126 16.1117 44.999
CA 12.1566 26.961 52.8701
CA 22.3776 2.0278 61.6004
CA 35.6671 43.5522 53.648
CA 27.2261 22.813 87.8815
CA -1.37449 22.5946 46.0758
CA 28.7345 29.6231 40.6592
CA 16.9935 37.7966 60.6065
CA -17.5713 34.4779 17.6262
CA 10.3587 28.9111 43.0264
CA 9.83284 34.0101 44.5898
CA -13.4537 26.6468 18.2935
CA 31.651 18.2243 70.6517
CA 16.5932 3.82427 45.77
CA 30.5661 18.7064 47.1709
CA 42.3391 33.9273 60.199
CA 40.6886 43.4142 72.0544
CA 3.03588 8.29956 56.0338
CA 42.6376 30.3654 50.3794
CA 11.7344 19.5606 65.2975
CA 12.8743 41.5445 33.4392
CA 32.2769 25.3183 48.6088
CA 15.2799 41.6054 50.5787
CA 25.4742 21.6127 44.672
CA 12.302 27.4422 56.6652
CA 19.7645 1.99781 56.6488
CA 20.3596 23.9587 44.8049
CA -9.98318 21.6549 33.5835
CA 40.8895 20.0785 58.3576
CA 41.2086 28.8604 36.2627
CA 37.3021 42.8081 55.0402
CA 32.6169 40.0001 66.3122
CA 24.4009 19.8879 82.872
CA 14.6906 35.9125 61.7064
CA 15.3615 25.671 56.1745
CA 39.1129 5.14768 52.6547
CA 16.2723 32.7347 45.2559
CA 26.9665 16.8656 71.1159
CA 25.0123 20.4413 40.0066
CA 17.8667 19.7135 78.9601
CA 30.9306 21.7425 85.8891
CA -6.92872 35.3164 23.9714
CA 19.4206 42.6115 49.9761
CA 31.9211 13.7836 51.0499
CA -9.26841 23.0223 16.3115
CA 24.8741 18.7608 80.5002
CA 9.03204 15.4232 48.2826
CA 2.99853 26.0564 56.0505
CA 13.693 2.0315 59.1034
CA 1.21188 23.5875 48.1173
CA 11.2844 33.2027 52.6876
CA 8.8862 31.3325 82.5352
CA 22.4515 20.8498 84.4207
CA 36.6126 37.8999 54.9683
CA 29.1443 17.6275 65.5575
CA 11.8814 36.204 42.3753
CA -14.7055 39.5431 16.5462
CA 33.996 40.9615 51.5726
CA 22.5319 1.635 43.4871
CA 13.0163 0.125676 45.4088
CA 20.6604 30.0761 44.8121
CA 22.087 -2.11588 38.9221
CA -14.8755 43.0834 14.8416
CA -11.8161 36.1136 15.8412
CA -1.811 30.4164 56.8186
CA 21.6711 21.2294 48.6268
CA 35.361 16.9648 42.3092
CA 35.1822 42.1538 57.2123
CA 24.7666 13.7431 87.8277
CA 5.01712 34.881 62.583
CA 21.8328 29.4907 41.066
CA 37.3422 24.1257 47.5551
CA 33.6602 18.299 71.8151
CA 23.7384 24.6943 61.5396
CA 30.2862 13.6526 63.8672
CA 0.197423 18.6943 37.7637
CA 0.660754 24.2634 54.9112
CA 31.7772 35.1273 56.9035
CA 33.048 27.7726 51.1941
CA 23.5852 -3.34293 43.258
CA -3.26177 24.4533 17.5892
CA 26.0673 7.28231 62.0029
CA 9.715 26.8874 82.9868
CA 18.8498 -1.77071 34.0479
CA -14.4992 35.3733 17.9886
CA 38.9747 16.614 43.7576
CA 23.0449 6.29895 47.0768
