489

CA 17.2794 7.15856 41.0145
CA 7.11303 22.4741 66.8194
CA 43.74 37.5734 46.7922
CA 16.9295 18.0133 66.5959
CA 20.3094 28.8487 47.6152
CA 19.5026 38.8354 64.307
CA 28.4644 44.269 56.1068
CA -26.0531 28.9047 16.9277
CA 16.5473 38.4205 68.3506
CA 5.50462 17.4371 38.1504
CA 35.9596 24.3622 46.0134
CA 11.3792 34.0838 77.7934
CA 14.2349 38.2764 70.4896
CA 20.1679 15.3888 42.8648
CA -6.67145 20.2855 11.4314
CA 1.90803 17.7693 61.8043
CA 6.84588 10.7553 59.987
CA 17.094 41.0782 79.5272
CA 15.6259 40.2058 62.5537
CA 12.0696 35.5968 82.3227
CA 13.7164 45.1865 80.1797
CA 21.2786 39.2502 53.471
CA 19.9937 11.5283 46.7463
CA 36.9793 15.7823 54.0576
CA 20.2185 13.5291 45.9358
CA 32.0521 35.882 50.1794
CA 20.1437 35.7063 58.4609
CA 15.332 36.3001 37.7149
CA 32.6302 31.3533 62.5144
CA 4.91964 19.2928 46.2416
CA 10.5469 21.689 63.3931
CA 40.1319 8.45977 54.7783
CA -2.76386 31.5326 47.6751
CA -0.323152 21.2896 58.5535
CA 7.35022 34.9891 64.8663
CA 39.2211 43.6769 53.8685
CA -6.91524 28.8135 25.5046
CA -9.4563 17.8878 1.58848
CA 22.6284 12.747 36.1716
CA 18.0171 27.0891 57.8738
CA 23.5662 22.0042 78.4701
CA -7.51783 42.9741 15.7377
CA 17.8429 13.5398 62.8883
CA -3.30587 16.2787 37.9561
CA 16.1827 2.90791 40.9298
CA 42.8504 10.0622 50.1689
CA 16.6635 22.0883 51.6778
CA -0.612062 16.5058 46.2239
CA 9.74978 39.598 54.6086
CA 26.1995 16.1462 55.2452
CA 44.7838 45.9754 73.4662
CA 19.9957 43.2724 80.1673
CA 16.6548 43.7189 72.3108
CA 14.2545 12.2226 62.2598
CA 15.0822 41.1763 54.0321
CA 43.4444 29.1745 54.6131
CA 9.97872 35.5456 89.9865
CA 21.4704 12.3212 60.03
CA 37.9738 7.41208 49.6145
CA 14.2441 36.8317 50.4516
CA 13.5065 37.2718 48.8247
CA 27.4809 24.5131 86.5338
CA 28.2895 19.1481 42.5313
CA 0.592187 14.9445 38.2931
CA 17.9842 14.5951 42.484
CA 35.4322 17.9337 42.0429
CA 45.4853 15.5137 47.6299
CA 14.547 1.07801 60.8668
CA 28.9177 19.137 87.8695
CA 16.511 43.7033 76.5501
CA 12.4846 26.1682 45.3404
CA 40.022 46.8779 65.4854
CA 29.6083 6.31842 71.6737
CA 8.49409 20.1837 52.6016
CA 7.20688 24.0449 64.174
CA 12.4465 44.2788 39.4714
CA 43.2005 24.1406 41.1297
CA 16.2867 23.3756 59.6662
CA 25.3333 33.9261 42.3246
CA 35.0559 26.4769 47.7697
CA 30.3277 14.0426 68.3341
CA 28.9855 26.3884 66.9815
CA 36.8015 18.7226 46.3936
CA 27.4176 13.8459 63.175
CA 18.6118 22.0927 51.3891
CA 10.4506 38.3954 77.3258
CA 41.8262 39.0258 61.1184
CA 44.4933 17.6713 46.7613
CA 32.7331 21.6813 73.662
CA 33.0962 38.4076 64.1791
CA 25.8831 36.8983 39.211
CA 23.7547 5.10794 40.1924
CA 17.6649 8.6026 48.2247
CA 13.0068 4.99862 60.874
CA -10.6972 41.7597 16.1504
CA 6.16963 31.5197 90.2606
CA -5.39896 18.81 5.94071
CA 43.0691 16.2508 58.3571
CA 43.2928 45.9074 62.2721
CA -15.165 23.5648 15.7278
CA 24.4107 9.09464 47.267
CA -1.52677 23.7844 45.3781
CA 7.01309 28.5781 43.1904
CA -5.04513 34.7767 22.5894
CA 0.663139 35.7727 49.1728
CA 21.3624 -2.09315 54.3786
CA 22.65 4.49669 62.0252
CA 14.4702 17.5689 61.1981
CA 29.1955 44.6553 67.519
CA 21.823 33.4029 52.4826
CA 13.0947 0.603106 62.8871
CA 28.0271 16.0096 50.9938
CA 43.5498 15.503 48.4156
CA 34.6957 41.2859 70.0923
CA 26.1804 33.203 52.6153
CA 16.2153 26.4716 42.4069
CA 10.126 35.2807 85.9351
CA 20.4492 8.41072 35.4271
CA 29.6777 19.6771 56.0829
CA 44.4042 31.7788 49.7842
CA 27.0081 17.8605 82.9053
CA 20.9533 28.6555 50.2704
CA -3.94074 26.1903 21.048
CA 8.58159 45.0616 39.7578
CA 17.2194 -1.14354 45.9377
CA 19.1644 16.7536 65.9841
CA 10.1827 23.4436 59.902
CA -8.29971 25.6046 17.9211
CA 9.60574 38.5688 68.2498
CA 16.8162 12.51 38.3963
CA 18.4145 19.3077 49.9166
CA 21.8726 20.5557 64.2044
CA 21.1127 6.51256 63.8908
CA 16.6473 31.9932 50.2565
CA 20.8802 39.3141 50.1371
CA 21.5311 21.368 62.4264
CA 41.9522 18.3449 58.6568
CA 22.2205 19.0042 41.7661
CA 18.4382 31.1387 53.1793
CA -0.750177 20.1107 32.333
CA 39.9805 16.4444 63.4727
CA 18.5039 40.8677 66.3991
CA 32.5043 36.2456 63.27
CA 23.338 38.5197 50.1109
CA 30.4297 43.1911 53.2199
CA 23.5487 24.6863 65.4405
CA 27.9593 26.5863 71.0149
CA 19.415 40.5099 85.1357
CA -4.15938 27.995 26.3173
CA 43.7139 18.3065 49.7225
CA -8.55324 29.7269 21.547
CA 16.7432 18.3985 85.2219
CA 17.5832 -0.764822 30.4847
CA -1.03397 14.6178 33.1183
CA 14.4626 29.0909 38.0291
CA -4.35776 19.5322 7.42828
CA 25.3054 6.55421 58.5637
CA -23.0562 34.2026 17.1863
CA 0.891314 28.0778 58.796
CA 9.00485 10.1178 64.2245
CA 18.1349 2.29384 59.8509
CA 11.9343 23.0144 44.7447
CA -10.3835 38.6571 19.3339
CA 32.3354 17.0036 79.5883
CA 3.95806 21.1141 63.7651
CA -1.96252 16.1463 33.7176
CA 12.4642 37.9071 65.0238
CA 14.1936 24.2384 59.7013
CA 39.4189 26.4845 42.2227
CA 22.7525 -0.296478 54.0761
CA 38.3113 41.5536 49.9752
CA 38.9185 24.0653 36.5805
CA 2.49206 22.4321 46.9812
CA 26.9196 15.1675 52.3432
CA 36.149 21.5729 48.469
CA 27.8389 5.17452 49.9183
CA 30.9422 44.054 55.4975
CA 17.0016 24.4733 42.1767
CA 18.6273 38.672 85.5098
CA 31.2008 4.57601 73.7849
CA 34.6922 13.879 45.8475
CA 27.4946 22.8699 45.644
CA -5.64776 26.9624 17.4087
CA 36.2453 45.0957 67.0942
CA 14.0412 13.047 46.2883
CA 34.7747 15.0676 79.3288
CA 25.4561 14.7168 75.3914
CA 26.3912 32.3775 40.8363
CA 25.5264 26.5961 48.4472
CA 4.30687 13.5977 61.2196
CA 20.7779 17.649 88.285
CA 15.1356 28.9087 55.8608
CA 16.2302 8.15885 37.8391
CA 30.2838 10.1215 66.6399
CA 18.3745 30.8663 49.9793
CA 7.79077 44.1774 55.4997
CA 8.29841 22.6054 64.2827
CA 39.6189 36.4502 58.9897
CA -0.701697 23.0021 48.1955
CA 21.9827 15.023 55.4962
CA 5.73862 13.506 59.251
CA 7.8398 12.5702 57.4588
CA 27.0593 20.275 84.2414
CA -8.19236 41.2909 20.1489
CA 22.8695 42.3852 73.2325
CA 29.6947 18.4861 41.2621
CA 5.45283 31.5917 61.7043
CA 27.2309 7.55356 50.737
CA 9.39525 14.7688 41.3015
CA 4.50661 23.9057 47.3024
CA 23.1751 36.5572 45.5894
CA 38.9176 21.3507 55.0669
CA 22.4573 42.6028 63.4209
CA -6.59977 16.5277 7.94404
CA 45.5694 21.5361 46.5772
CA 2.04196 37.6672 57.747
CA 34.5896 40.7996 46.3107
CA 41.0422 23.4542 54.3823
CA -7.72558 34.3703 17.0509
CA 15.6584 15.014 64.588
CA -1.31221 39.6405 58.259
CA 16.6121 42.9205 80.2628
CA 17.6109 31.5726 46.774
CA 44.914 15.7911 60.3207
CA 19.6961 18.477 40.1523
CA 25.9382 18.0218 56.2722
CA -4.96019 25.1435 31.9537
CA 8.53526 17.084 54.7722
CA 0.930939 25.2371 28.7157
CA 25.1687 26.731 37.9431
CA 18.3783 2.81488 62.1185
CA 8.4596 35.4448 57.9815
CA 43.6729 27.1771 36.9242
CA 9.49315 16.5603 37.1038
CA 23.712 1.72467 58.7489
CA 8.9277 39.8286 40.2308
CA 11.6642 36.084 79.4433
CA 23.0844 40.1004 53.8239
CA 34.8401 43.2028 47.9623
CA 23.1137 29.0259 47.7839
CA 29.5037 23.7358 86.0615
CA 30.2388 16.1007 76.895
CA 7.3112 23.3987 53.3399
CA 21.312 3.2447 42.4811
CA 29.2396 45.7817 55.2005
CA -12.9559 36.4734 18.1069
CA 36.9123 41.2665 64.5322
CA 41.9884 27.3838 43.2934
CA 15.969 46.1319 41.6029
CA 37.7135 17.2924 59.1384
CA 16.4257 20.7124 70.6359
CA 0.178445 27.5218 49.8049
CA 10.0088 17.3885 58.2627
CA 31.9688 8.11894 69.6637
CA 5.38601 6.80281 60.8493
CA 42.8211 12.3972 51.242
CA 33.3994 24.6302 50.7714
CA 25.0384 41.3693 71.7024
CA 16.8777 8.04525 61.1831
CA 47.5342 45.4082 60.6935
CA 29.0687 23.5771 60.3718
CA 6.44936 22.8492 51.6983
CA 42.0591 36.3288 47.9374
CA 29.9758 41.2611 62.2721
CA 18.5551 39.8637 75.0244
CA 22.3918 12.156 45.9842
CA 5.72773 15.0178 60.3642
CA 25.6332 13.6951 67.9598
CA 16.05 21.4815 45.6716
CA -5.64224 16.1577 6.0449
CA 34.6305 44.0735 65.0754
CA 34.3776 36.1201 62.6036
CA 43.6349 43.9179 68.945
CA 8.40303 17.4203 42.4524
CA 10.7864 46.5111 83.9809
CA 27.3309 23.4229 66.1219
CA 16.0956 27.4808 38.6807
CA 33.0469 16.6858 43.6959
CA 15.374 35.8936 59.9566
CA 20.9498 32.8437 42.9869
CA 27.6441 34.9029 45.6629
CA 19.3326 -3.23647 52.3235
CA 41.8798 38.3639 66.459
CA 41.2301 34.1492 53.0375
CA 22.8314 8.9226 36.2853
CA -1.01374 34.5897 59.8727
CA 7.70553 25.5774 44.1055
CA 20.983 20.3746 57.075
CA -7.0432 31.4749 50.8428
CA 31.1313 21.3182 38.0441
CA -4.83158 20.813 31.1337
CA 4.33062 17.0306 40.6456
CA -9.56423 35.4028 22.8402
CA 30.2623 35.7357 51.9419
CA 40.7594 43.4671 63.6449
CA 27.4793 22.154 56.1643
CA 32.7763 22.481 89.6879
CA -4.67334 16.7635 4.23273
CA 22.8192 24.4957 51.3895
CA 41.3314 13.1421 45.4052
CA -9.77922 28.1956 20.8329
CA -2.22726 17.8926 7.41891
CA 2.53448 17.0483 45.1679
CA 42.4379 35.476 58.4579
CA 41.7189 15.9586 61.3637
CA 6.23658 16.3615 49.5167
CA 6.73398 37.6983 63.9514
CA 29.0574 27.2853 35.2559
CA 39.7071 41.5989 70.3698
CA 25.8121 23.2376 40.386
CA 15.1948 40.9798 48.4642
CA 12.6581 7.21041 40.3122
CA 5.67636 15.3485 62.1381
CA 6.66944 27.7634 92.0549
CA 17.9425 14.5045 58.9538
CA -0.0151885 35.829 47.0413
CA 37.1396 46.6966 61.8805
CA 9.22169 31.1966 42.4949
CA 44.5402 18.9895 38.88
CA 20.3515 37.1605 75.3528
CA 13.2268 34.5005 48.499
CA 40.7964 42.6093 65.2598
CA 27.323 46.1102 65.3508
CA -22.9051 30.2241 16.7661
CA 9.46221 19.4921 50.4037
CA 18.2757 37.6625 79.3566
CA 26.1018 27.4121 40.57
CA 27.2294 18.5558 44.7534
CA 22.0416 41.213 67.3051
CA -11.5543 26.968 20.9195
CA 22.5199 0.816492 36.425
CA 0.793118 27.326 21.9625
CA -1.50487 23.2009 53.0975
CA 19.8852 43.4889 51.4878
CA 39.5648 40.7045 54.0473
CA 16.8623 47.7749 40.3786
CA 11.6905 17.2425 45.848
CA 27.3612 43.3378 65.8774
CA 37.6093 14.1818 59.8451
CA 24.6677 4.44573 61.8658
CA 27.3062 25.4135 41.1048
CA 27.7434 22.0942 61.8445
CA 0.99895 20.9458 52.15
CA 24.693 43.8547 69.0366
CA -0.565674 25.0213 23.6319
CA 38.0148 29.6469 43.7036
CA 1.21111 19.7117 30.1192
CA 40.9889 39.2016 53.7578
CA -2.90191 26.9964 47.5776
CA 30.3633 20.2378 76.8149
CA 27.4098 23.6879 73.3277
CA 4.68719 38.6928 64.7602
CA 36.4578 5.3494 54.1312
CA 36.4271 15.8036 58.9318
CA 7.59606 37.4505 35.0815
CA -0.994648 19.391 43.4971
CA 5.98231 26.2976 69.2247
CA 35.846 32.2086 46.1735
CA 25.1253 16.1637 86.0845
CA 8.87805 34.7416 50.0063
CA 9.66 37.6502 54.7029
CA 38.0918 38.6199 65.5273
CA 41.2285 38.9591 57.7931
CA 5.52825 39.1313 35.6565
CA 15.6724 46.3136 82.3734
CA 23.1823 25.9811 41.8648
CA 29.519 21.6779 71.9419
CA 37.3118 24.05 34.418
CA 24.5776 24.7351 68.8126
CA 25.1033 11.571 78.4119
CA 26.8454 23.5675 75.5982
CA -3.77512 34.1937 49.5548
CA 20.2175 46.6398 51.3632
CA 45.2966 39.1009 50.8042
CA 26.156 14.814 69.5268
CA 24.5179 22.4414 83.9747
CA 16.9214 12.9222 58.2536
CA 13.4402 26.2723 57.5805
CA 14.8937 4.17053 42.4751
CA 42.8019 15.2062 46.5272
CA 33.6639 15.4077 54.7238
CA -9.02714 22.0989 1.04844
CA 18.4515 16.449 42.9132
CA 38.6261 15.5448 40.9706
CA 42.2053 21.7706 41.6062
CA -17.1207 27.5551 18.6291
CA 31.9799 32.529 46.7199
CA 0.250229 25.38 51.4007
CA -5.56521 23.1074 16.5057
CA 16.3578 23.8168 40.5639
CA -9.35135 35.5802 19.4397
CA 17.8297 39.3251 60.028
CA 4.19155 10.5381 55.1506
CA 33.1141 39.2254 54.2637
CA 19.4063 24.1851 61.375
CA -13.5429 41.4165 16.0784
CA -9.58766 37.8624 25.7961
CA 45.0618 21.961 43.2155
CA 30.0861 7.63011 60.4832
CA 31.1262 18.4962 76.1803
CA -3.76055 33.7625 14.9335
CA -5.55736 22.3971 7.23489
CA 19.1126 16.1117 44.999
CA 1.41294 21.6048 48.9928
CA 7.65964 9.41499 61.1424
CA 11.3829 22.0773 61.6737
CA 34.2338 19.4467 47.176
CA 8.86091 28.4742 45.5439
CA 28.7345 29.6231 40.6592
CA 16.9866 34.4961 62.0851
CA -17.5713 34.4779 17.6262
CA 46.6267 45.9306 74.4117
CA 9.83284 34.0101 44.5898
CA -13.4537 26.6468 18.2935
CA 46.3784 10.9188 53.4096
CA 16.5932 3.82427 45.77
CA 39.5387 45.6198 62.7175
CA 14.2745 16.0017 57.3346
CA 17.3533 28.1769 44.7477
CA 14.8332 38.4913 80.6622
CA 13.7383 40.3541 62.7567
CA 28.4093 17.8955 51.6647
CA 0.595601 34.5897 62.4305
CA 32.2769 25.3183 48.6088
CA 16.1709 43.4929 85.1771
CA 25.4742 21.6127 44.672
CA 12.302 27.4422 56.6652
CA 36.1206 29.6928 48.0143
CA 21.6799 15.8311 38.3424
CA -9.98318 21.6549 33.5835
CA 23.9676 24.8745 49.1325
CA -5.48678 28.9366 28.6966
CA 37.3021 42.8081 55.0402
CA 2.83639 18.884 35.9487
CA 30.5923 16.9151 78.998
CA 31.9676 43.8221 63.7541
CA 15.9984 33.2208 58.6441
CA 10.7488 43.5304 64.1866
CA 26.7495 9.32486 59.9439
CA 26.9665 16.8656 71.1159
CA 25.0123 20.4413 40.0066
CA 28.1067 21.8223 89.7472
CA 30.9306 21.7425 85.8891
CA 30.0913 16.574 52.0891
CA -8.9084 21.689 11.6497
CA 13.2432 10.3935 35.476
CA -9.26841 23.0223 16.3115
CA 24.8741 18.7608 80.5002
CA 9.03204 15.4232 48.2826
CA 2.99853 26.0564 56.0505
CA 13.693 2.0315 59.1034
CA 13.1158 25.126 50.6487
CA 29.8585 15.3041 65.2477
CA 33.9793 41.4844 73.0051
CA 22.4515 20.8498 84.4207
CA 29.2726 24.7515 68.0795
CA 29.1443 17.6275 65.5575
CA 11.8814 36.204 42.3753
CA -14.6894 30.7052 18.7158
CA 33.996 40.9615 51.5726
CA -2.84564 27.2566 32.8728
CA 24.4408 1.66524 43.1012
CA 20.6604 30.0761 44.8121
CA 21.0626 5.37595 39.6758
CA -14.8755 43.0834 14.8416
CA -11.8161 36.1136 15.8412
CA 15.972 5.47632 62.7709
CA 30.7035 24.8244 63.0942
CA 12.5176 44.8719 85.0184
CA 7.81992 31.6909 78.6323
CA 48.9204 29.3713 47.908
CA 5.01712 34.881 62.583
CA 11.5536 13.4745 65.6194
CA 37.3422 24.1257 47.5551
CA 33.6602 18.299 71.8151
CA 23.7384 24.6943 61.5396
CA 30.2862 13.6526 63.8672
CA 0.197423 18.6943 37.7637
CA 26.2448 14.2515 87.7195
CA 19.0951 29.1301 38.9565
CA 5.37923 22.447 55.393
CA 23.5852 -3.34293 43.258
CA -3.26177 24.4533 17.5892
CA 26.0673 7.28231 62.0029
CA 40.5081 33.8117 61.556
CA 18.8498 -1.77071 34.0479
CA -14.4992 35.3733 17.9886
CA 38.9747 16.614 43.7576
CA 23.0449 6.29895 47.0768
