489

CA 35.3481 23.8969 46.2607
CA 36.6505 27.5315 50.2028
CA 23.5011 18.599 80.5538
CA 33.8568 11.3994 49.0968
CA 41.3388 31.3507 32.7905
CA 19.5026 38.8354 64.307
CA 33.7807 19.4759 73.0155
CA -26.0531 28.9047 16.9277
CA 7.48942 39.6359 60.2546
CA 9.71963 14.9855 47.9486
CA 28.0276 44.2141 62.0015
CA 30.5277 17.5278 65.9384
CA 39.5453 24.9337 43.5262
CA 26.4888 27.0553 35.8891
CA -0.962271 14.6524 3.70628
CA 20.9736 12.8106 51.3188
CA -9.47459 26.3269 22.4007
CA 35.109 41.5164 55.4069
CA 11.458 18.0212 41.8824
CA 21.459 46.3405 76.7255
CA 23.3101 46.4886 80.817
CA 15.9284 16.0034 61.3063
CA -5.24013 18.2327 35.8655
CA 41.6056 8.00161 56.0515
CA 5.50092 34.4783 45.3398
CA 9.54308 40.0607 64.1722
CA 16.1376 14.3086 55.5638
CA 24.9229 33.1414 39.7564
CA -1.35339 20.1453 40.9532
CA 5.31773 31.6897 42.0974
CA 40.4433 25.5424 60.2576
CA 47.4735 31.0392 53.7199
CA 17.6467 22.4187 46.9026
CA 5.82606 27.0955 56.9631
CA 40.3651 43.1041 51.0635
CA 18.2829 33.8651 52.4181
CA 37.7069 7.80204 49.7944
CA -9.4563 17.8878 1.58848
CA 45.4377 19.0917 43.4651
CA 34.6799 21.3951 67.8678
CA 8.06745 17.4224 44.9914
CA 17.3666 32.231 35.2247
CA 36.7563 40.6047 48.5732
CA 3.37595 14.2907 40.5899
CA -0.396807 18.9501 10.6635
CA 29.6162 31.7635 41.5824
CA 17.4042 23.7477 56.0479
CA 28.484 16.7494 38.0046
CA 41.2354 43.5946 61.2897
CA 10.4932 39.7385 41.6085
CA 38.4797 35.2861 36.7905
CA 5.20941 15.8207 49.5857
CA -3.53944 8.74308 2.63284
CA 45.0856 15.4405 51.8821
CA 24.1574 35.669 36.515
CA 27.0636 17.5913 41.5022
CA 9.23262 16.8024 56.4272
CA 5.00971 34.8192 51.1846
CA 45.4162 44.6555 57.8808
CA 13.4173 31.9155 81.4846
CA 44.562 27.3091 62.7789
CA 43.5603 15.5005 47.3664
CA 13.4528 26.9581 59.406
CA 2.55926 10.2419 42.1257
CA -2.14247 23.0687 38.8815
CA 14.9644 34.2513 79.2466
CA 5.21064 21.769 45.4102
CA 41.305 30.1885 36.6501
CA 37.8523 32.1965 33.7227
CA 31.7216 28.6573 32.749
CA 21.2007 47.9585 80.8948
CA 19.7669 17.8493 42.7808
CA 22.3018 1.63099 40.8267
CA 33.8294 17.981 62.9249
CA 38.3915 24.5504 64.7232
CA 12.4465 44.2788 39.4714
CA 42.2671 21.349 52.4246
CA 45.4796 40.4604 55.5699
CA 9.54289 14.8937 58.8938
CA 13.9936 29.0423 64.0636
CA 27.9921 39.9281 36.3958
CA 33.4017 39.7635 65.3087
CA 22.6768 19.692 54.8205
CA 28.665 22.1999 72.7214
CA 25.8789 16.5117 78.3007
CA 33.7881 21.8179 42.5023
CA -0.547283 28.1107 38.6251
CA 47.7709 16.5689 51.5036
CA 38.6164 11.1526 51.5695
CA 20.1017 41.6158 51.8975
CA 25.8831 36.8983 39.211
CA 10.3916 37.0389 79.2639
CA 25.2202 3.50689 40.2896
CA 13.0068 4.99862 60.874
CA -10.6972 41.7597 16.1504
CA 21.5336 44.5184 76.1042
CA 27.1453 8.91649 62.0479
CA 25.6735 8.1694 49.3565
CA -11.9582 19.555 19.3561
CA -10.6174 23.3592 18.9073
CA 20.7448 18.2416 52.7621
CA 19.887 29.8138 42.7849
CA 20.9352 25.7385 75.9171
CA 39.2615 18.8852 65.8122
CA 17.8214 45.3012 76.3879
CA 25.0713 7.84564 32.3498
CA 21.3268 40.8175 56.0498
CA 30.6849 22.1735 85.802
CA -6.00765 43.3503 17.2883
CA 24.023 36.2052 50.4369
CA 48.8268 29.0011 44.5462
CA 18.716 19.2433 81.4938
CA -6.7482 36.5454 16.4387
CA 31.0622 8.22008 46.9027
CA 46.4178 14.5154 56.5684
CA 26.0697 1.29447 42.2001
CA 14.0166 12.0946 60.3532
CA 1.84731 30.8502 43.821
CA 25.6534 37.9002 53.7767
CA 13.8444 23.4044 55.6989
CA 26.7796 43.431 65.3536
CA 0.68362 14.5969 5.69116
CA 29.8224 17.8183 76.7127
CA 2.64143 31.5314 54.1771
CA 18.882 46.2081 79.8396
CA 10.8498 33.4524 59.1069
CA 9.38066 9.1412 62.2472
CA 22.2622 18.4331 62.0236
CA 11.1856 36.0432 76.6225
CA 28.8137 34.7409 52.1047
CA 36.7838 10.3985 54.3857
CA 40.3028 13.245 49.0223
CA 16.0127 27.1199 49.5568
CA 47.8746 29.8453 47.2618
CA 19.0012 4.53125 53.7534
CA 19.3887 13.7664 56.9245
CA 47.0506 35.3957 50.8661
CA 41.5143 9.34127 59.0952
CA 40.6955 21.9736 55.5596
CA 40.0441 5.70975 58.3509
CA 52.5978 48.0363 57.4425
CA 44.3394 36.9945 66.6647
CA 34.7411 14.0017 49.8911
CA 23.338 38.5197 50.1109
CA 36.7663 20.9076 45.393
CA 30.188 20.5182 55.1525
CA 11.0085 20.5119 66.9282
CA -11.2171 28.0522 20.2837
CA 42.1576 33.3008 27.5281
CA 20.8019 19.4029 37.4821
CA -8.55324 29.7269 21.547
CA 2.66859 15.2281 45.8434
CA 22.8287 48.4112 73.024
CA 31.2721 31.622 42.3533
CA 23.0275 21.1743 82.9767
CA 21.0861 41.3304 59.5868
CA 23.332 17.6497 64.8293
CA -23.0562 34.2026 17.1863
CA 44.7828 18.3444 49.1561
CA 11.5067 36.53 44.4376
CA 27.6067 29.737 55.8153
CA 37.3557 10.1804 58.4634
CA 25.2691 31.7259 45.3893
CA 30.0889 50.6992 68.5982
CA 43.7154 29.6276 29.0256
CA 44.246 22.0488 51.5482
CA 15.9674 22.2109 34.8938
CA 14.1936 24.2384 59.7013
CA 31.5693 22.7188 34.5179
CA 18.7331 16.135 51.248
CA 6.21521 26.8143 51.3157
CA 10.8672 13.9889 60.1246
CA 41.4157 41.0831 45.2938
CA 29.7618 4.63534 56.0639
CA 30.9567 9.24027 59.9976
CA 21.3904 48.2042 47.7002
CA 20.3165 18.6478 34.0185
CA 35.0372 24.7063 32.7486
CA 18.5497 20.4498 51.4661
CA -4.26735 11.7998 4.78127
CA 15.2794 20.2908 45.3469
CA -8.63211 10.2916 4.49789
CA -5.64776 26.9624 17.4087
CA 28.0178 29.2511 88.0287
CA 26.1072 12.8339 36.0515
CA 22.7212 15.2286 48.2601
CA 40.9742 42.6923 67.5351
CA 27.0372 29.4444 35.717
CA 22.1439 11.0211 35.052
CA 14.5041 37.5039 48.9829
CA 20.7779 17.649 88.285
CA 20.2807 16.1964 53.6496
CA 29.3927 6.31729 35.3381
CA 30.6154 28.4035 78.5637
CA 26.6666 20.0545 62.318
CA 44.6488 35.3742 49.6674
CA 18.325 33.0973 36.8985
CA 3.12841 7.90376 38.5918
CA 8.28861 20.8033 55.6359
CA 27.3694 24.0203 86.0981
CA 23.6083 3.15762 49.91
CA 24.9897 25.7035 48.8815
CA 37.8306 15.06 45.0921
CA 8.27908 34.719 44.2283
CA 24.825 22.7248 76.6616
CA 29.6947 18.4861 41.2621
CA 34.2141 13.0614 60.0263
CA 8.40614 24.8446 52.2425
CA 27.493 7.93942 57.1263
CA 26.3906 37.3061 49.7906
CA 39.2103 41.3367 42.4913
CA 45.9076 40.9815 57.4212
CA 32.5878 40.895 51.2968
CA -0.242804 15.888 1.97979
CA 33.5045 21.6446 76.3661
CA 15.0985 17.9904 50.8156
CA 16.9413 44.039 81.0691
CA 39.6604 43.0148 65.6239
CA -7.72558 34.3703 17.0509
CA 38.9269 31.9025 58.9808
CA 14.9486 34.7854 55.9737
CA 29.917 26.5785 38.919
CA -18.2766 25.4312 15.8645
CA 30.7971 17.753 62.9069
CA 18.39 28.7036 46.646
CA 34.8587 43.9851 47.6643
CA 44.0731 43.8337 43.0028
CA 26.0333 15.3839 52.1761
CA 0.930939 25.2371 28.7157
CA 35.2941 23.3871 74.2432
CA -2.70257 30.3783 48.4824
CA 37.2731 39.1904 50.1577
CA 32.8164 29.4729 52.6156
CA 9.49315 16.5603 37.1038
CA 46.4756 31.8138 51.0183
CA 24.7285 44.0184 54.2942
CA 22.8321 37.5893 68.9776
CA 37.9211 29.1203 49.3346
CA 28.8624 27.9458 50.774
CA 24.6333 46.7831 52.47
CA 35.8115 8.43534 50.4861
CA 13.3155 30.9568 39.2937
CA 15.5456 37.9964 39.5181
CA 37.7474 28.9902 44.9681
CA 44.819 32.5165 50.0843
CA -12.9559 36.4734 18.1069
CA 14.9504 21.2989 60.6048
CA 5.12102 12.2899 63.3075
CA 5.97251 18.2055 58.6218
CA -0.702537 34.1166 54.4103
CA 0.0813294 25.6402 41.308
CA 48.0705 22.0078 66.022
CA 28.3506 26.3763 87.8583
CA 7.41305 22.7915 67.2296
CA 25.0183 25.6039 72.3558
CA 31.2676 40.8721 60.2011
CA 49.2078 48.0509 57.0134
CA 25.0384 41.3693 71.7024
CA 39.5662 25.1845 51.7085
CA 47.5342 45.4082 60.6935
CA 3.91385 12.6453 43.3874
CA 47.9208 16.9882 42.7762
CA 25.3546 14.2004 61.1856
CA 44.769 11.5104 52.8466
CA 18.5551 39.8637 75.0244
CA 19.3155 8.96195 55.6381
CA 48.447 27.6093 49.5591
CA 43.1822 45.823 63.9367
CA 39.9235 44.1147 67.1589
CA -5.64224 16.1577 6.0449
CA 19.5503 19.3755 62.1848
CA 12.9222 42.6871 81.7713
CA 19.2289 36.1575 38.5735
CA 20.3507 37.9079 60.0754
CA -3.45229 26.3295 15.3206
CA 37.5405 6.51846 54.9709
CA 25.6901 5.90176 41.2844
CA 0.164632 27.5049 33.6453
CA 21.6277 28.7692 58.0089
CA 6.56362 10.5583 57.4504
CA 35.3447 39.5569 52.6211
CA 7.93116 30.9431 54.668
CA 21.0006 33.0885 40.1574
CA 41.9061 5.68262 57.2688
CA 9.16777 29.2685 42.3227
CA 17.2704 19.8288 62.7037
CA 13.2867 19.7364 52.1193
CA 0.528956 17.1697 40.3907
CA 36.5781 30.6241 42.5184
CA 28.5455 27.847 39.7239
CA 33.6816 31.241 79.9365
CA 29.0459 36.6408 43.842
CA 17.3275 36.372 36.709
CA 32.0195 28.3165 36.6295
CA 12.7724 34.8051 54.0436
CA 39.9615 38.3217 66.6454
CA 24.0269 22.5757 34.5284
CA -4.67334 16.7635 4.23273
CA 18.7142 38.6834 34.0544
CA 22.3446 8.77496 44.5185
CA 20.2098 34.4238 71.1816
CA -2.22726 17.8926 7.41891
CA 39.3664 20.6525 50.519
CA 11.3508 38.1975 45.3286
CA 25.7204 23.4124 49.112
CA 23.8025 23.2334 49.7139
CA 23.9241 41.8688 69.403
CA 35.9864 27.1526 61.409
CA 39.7071 41.5989 70.3698
CA -0.447494 25.3982 18.012
CA 37.374 33.5394 44.4946
CA 9.0331 4.25576 59.7767
CA 13.399 -0.189032 62.5479
CA 28.9568 13.9885 39.0263
CA -7.20871 23.3178 12.6978
CA 16.8297 39.8743 77.1353
CA 38.3918 40.9425 63.5812
CA 42.2914 24.276 28.3442
CA -2.45912 28.585 46.3411
CA 6.11771 -1.28384 55.5514
CA 43.9801 38.85 53.9278
CA 29.2506 17.5992 79.7904
CA 26.5643 49.1695 55.2296
CA -22.9051 30.2241 16.7661
CA 25.435 16.179 54.6794
CA 24.3083 8.86278 46.1336
CA 30.865 23.7664 56.071
CA 31.8893 30.9214 50.4316
CA 21.0469 24.8025 58.32
CA 32.377 40.0205 53.5607
CA 44.7237 38.9673 77.3626
CA -15.7869 38.9219 20.1345
CA 16.9442 37.6925 59.4215
CA -1.16587 30.0333 50.3078
CA 30.0169 16.8578 52.8379
CA 31.7469 22.3431 76.6928
CA 11.6905 17.2425 45.848
CA 32.5157 17.0959 74.9349
CA 16.2831 19.528 64.6216
CA 22.1574 21.5573 51.5318
CA 28.4858 20.2196 54.0959
CA 41.6444 41.4767 75.7876
CA 24.3454 11.8036 58.4451
CA 8.38604 25.829 56.8651
CA -0.565674 25.0213 23.6319
CA 20.8597 42.9593 61.2755
CA 21.9189 37.5969 39.9936
CA 29.264 27.0069 77.5833
CA 21.0645 43.298 68.0865
CA 15.0454 35.0641 54.1359
CA 27.2938 18.0452 74.563
CA 22.2351 10.7094 32.3423
CA 39.1714 18.7992 57.2875
CA 13.174 31.066 59.5408
CA 53.4831 44.7624 55.1123
CA -8.74098 40.0966 16.9894
CA 33.3344 9.54431 52.9716
CA 23.6264 20.4721 34.8346
CA 25.1253 16.1637 86.0845
CA 0.211029 16.9573 43.074
CA 13.2124 21.1049 64.4319
CA 48.442 27.2779 64.366
CA 41.2285 38.9591 57.7931
CA 22.7833 41.7876 58.6362
CA 29.1759 22.6601 84.7042
CA 33.2344 25.5568 52.1921
CA 28.6209 18.6365 85.4577
CA 31.5258 19.2368 54.0008
CA 0.51724 24.4685 48.5615
CA 23.9377 35.1057 56.2859
CA 18.1891 27.9843 40.019
CA 23.0969 50.8418 52.3804
CA 13.8728 43.8861 47.1256
CA 45.2966 39.1009 50.8042
CA -3.36602 15.8065 14.796
CA 12.9301 17.6229 50.7556
CA 37.5753 22.442 35.1571
CA 11.63 19.3579 65.5118
CA 5.98274 28.382 39.6834
CA 22.259 23.9962 56.8696
CA 17.9611 21.5839 35.9678
CA 9.38772 24.5313 42.5388
CA 18.4515 16.449 42.9132
CA 8.5678 37.3163 72.4644
CA -10.2965 13.2412 7.82608
CA -2.5453 24.8867 19.4621
CA 13.6718 41.8981 45.806
CA 22.8605 11.6452 48.8223
CA -5.56521 23.1074 16.5057
CA 26.8895 21.9702 85.0817
CA -13.3208 38.4039 15.9772
CA 38.9882 42.8308 73.6179
CA 34.12 21.8727 64.0748
CA 17.5708 9.04775 36.6043
CA 35.5204 15.0545 46.8281
CA -13.5429 41.4165 16.0784
CA 27.154 23.8284 83.41
CA 10.302 33.3975 44.5042
CA 10.2689 38.0565 58.3111
CA -3.81661 18.4699 39.2814
CA 12.3089 35.2893 60.0743
CA -5.55736 22.3971 7.23489
CA 36.1146 26.3568 45.266
CA 26.5262 28.146 34.404
CA 26.9328 4.79878 46.7326
CA 5.515 33.9262 42.788
CA 41.2217 35.1991 41.0052
CA 18.8899 38.0215 47.3644
CA 33.2368 41.2033 56.3138
CA 25.2313 39.6916 61.2634
CA -17.5713 34.4779 17.6262
CA 45.7026 12.4703 50.4583
CA -3.95096 7.34984 45.8438
CA -13.4537 26.6468 18.2935
CA 0.0313152 29.4184 21.759
CA 9.11086 18.8527 50.635
CA 5.30735 23.1344 47.3996
CA 0.0714281 17.3025 37.4075
CA 32.2813 36.8186 57.4306
CA 14.8332 38.4913 80.6622
CA 36.3754 41.1078 46.4971
CA 32.3838 22.6942 57.465
CA 3.60182 32.188 52.5626
CA 29.0925 27.9565 83.8679
CA 37.4212 35.7019 57.4016
CA 6.41077 26.1162 44.2076
CA 22.9086 42.5105 67.2303
CA 18.892 10.2337 35.0178
CA 18.3895 29.0757 37.1556
CA 41.8486 41.8788 61.234
CA 34.3792 41.7544 57.7123
CA 32.5997 23.6878 37.1969
CA 43.1002 17.2163 42.4909
CA -7.64662 17.6085 8.10941
CA 3.42244 20.0914 49.7833
CA 26.7479 22.7037 43.1525
CA 29.0279 48.166 65.2681
CA 1.73198 15.628 41.6791
CA 9.79278 26.0534 47.9245
CA 8.31255 10.6815 63.3863
CA 21.1957 22.1034 46.9403
CA 47.0957 12.0044 53.313
CA 27.13 26.6946 51.9363
CA 24.1424 12.1066 56.1425
CA -1.80733 29.6972 21.9567
CA -2.66862 11.0971 43.8834
CA -9.26841 23.0223 16.3115
CA 25.4717 12.5122 42.8799
CA 24.2628 24.972 87.4349
CA 15.442 10.4565 35.1092
CA 46.5088 25.5214 65.0881
CA -2.93262 31.7595 52.1027
CA 8.62319 2.96496 56.6273
CA 37.4059 15.2785 58.1316
CA 18.3923 23.8193 33.6035
CA 43.8852 35.1929 54.3551
CA 45.4959 11.4718 55.7123
CA 24.2152 23.7759 51.6718
CA -14.6894 30.7052 18.7158
CA 26.9392 23.1457 59.7268
CA 14.5709 10.0397 38.5813
CA -7.08302 21.5988 18.3484
CA 26.1292 45.185 69.9017
CA 21.0626 5.37595 39.6758
CA 23.8904 32.5592 55.1375
CA -11.8161 36.1136 15.8412
CA 7.94821 22.583 52.9214
CA 36.0096 23.0992 57.2857
CA 25.2925 23.3528 67.9964
CA 9.00256 40.6742 62.4596
CA 16.2524 20.3413 53.5275
CA 24.8944 31.5587 53.9758
CA 16.9854 24.953 49.2723
CA 24.2492 18.4087 37.192
CA 29.9901 14.752 52.8016
CA 22.8315 8.64472 36.9668
CA 30.2862 13.6526 63.8672
CA 28.0146 9.52114 55.9602
CA 26.369 20.9011 42.8195
CA 47.5867 15.9346 53.5037
CA 2.20774 32.8526 48.3429
CA 35.881 21.0744 49.0508
CA -3.26177 24.4533 17.5892
CA 29.3188 20.5866 64.9987
CA 20.147 41.0295 63.6292
CA 0.78969 16.6743 13.0278
CA -3.15702 19.3521 17.2095
CA 17.7617 27.0089 32.4197
CA 22.9894 7.15848 56.9758
