489

CA -26.9167 -8.57646 21.2548
CA 1.18083 19.0532 46.4837
CA 21.233 32.0048 63.6944
CA -26.1053 -18.8479 26.2417
CA 20.9846 12.6447 76.3501
CA 17.044 19.4202 66.0284
CA 17.2515 32.9092 67.702
CA 22.461 3.88693 55.627
CA 2.70123 18.0568 69.8029
CA 24.4965 11.606 85.2999
CA -29.2489 1.20074 21.577
CA 4.92566 4.65579 61.9668
CA 17.4983 -6.03629 45.0627
CA -22.1942 7.03223 25.2166
CA -10.6101 8.94028 47.7873
CA 19.7916 -1.54589 58.8359
CA 19.5603 8.78488 80.1167
CA 9.73013 10.1866 63.0922
CA -4.02541 21.131 51.4815
CA 11.7447 5.62228 62.6392
CA 17.3426 8.63357 71.6858
CA -0.953145 18.4599 66.6504
CA -16.6589 -20.5444 19.1757
CA 3.47998 -5.46824 52.9879
CA 12.1684 -7.13737 58.8893
CA 17.1588 31.8394 71.1619
CA -7.76207 25.7913 45.4301
CA 35.5242 11.533 45.2283
CA -5.45406 24.6467 19.5368
CA 10.1361 1.49503 40.184
CA 11.4205 9.28349 32.6088
CA -21.9693 20.5424 74.2458
CA 23.6285 -9.38456 44.4015
CA -19.3898 -24.7073 24.7635
CA -8.60062 37.5446 40.2492
CA 13.3614 -11.7887 66.0522
CA 10.9823 34.3217 57.5746
CA 5.31614 4.49444 59.3167
CA 15.7804 -9.5218 70.9352
CA 17.4256 24.1112 27.3266
CA -1.49983 8.07396 55.9516
CA 14.6665 -7.56955 42.8792
CA 19.0284 9.26489 67.0004
CA 0.0891503 23.3796 37.9276
CA -0.73003 19.7351 63.2317
CA 22.2861 9.86809 78.6399
CA 10.442 14.7829 56.5215
CA -1.51922 24.7413 35.893
CA 11.2752 17.3431 58.2143
CA 13.8971 10.7193 60.0355
CA -7.20124 32.3769 45.8086
CA -10.9076 19.7794 57.2016
CA 8.8669 18.5229 19.7079
CA 16.3522 24.1301 25.6664
CA 7.39368 -2.40399 62.3341
CA 14.4033 33.2881 70.5995
CA 20.4328 34.2436 57.3726
CA 2.3669 -6.52105 55.9598
CA 8.58733 12.8217 24.9113
CA 18.463 -0.359197 58.1446
CA -7.03394 17.7754 59.3306
CA -2.55866 24.471 19.5015
CA 1.39892 -4.75213 53.2521
CA -4.49448 16.22 56.3267
CA -21.7856 4.41399 22.6382
CA 16.8253 31.6009 32.4974
CA 26.288 31.9057 63.28
CA -2.2516 -5.7415 44.6333
CA -3.52747 18.8169 45.7318
CA 15.711 16.0714 33.8001
CA 15.9536 11.286 72.0516
CA 11.8734 6.30975 65.7299
CA 9.04708 19.8758 52.7342
CA 19.9649 11.6042 79.1203
CA 20.901 -0.0320465 52.5933
CA -10.3526 19.4983 53.7807
CA 27.3629 23.0166 46.7984
CA 15.5925 -7.21664 64.0241
CA 16.9387 25.3074 32.2563
CA -20.9021 1.58799 69.6224
CA -7.16088 18.4729 49.5369
CA 16.8151 23.3783 30.8066
CA 3.13861 22.6711 62.3557
CA 14.103 35.2727 62.5396
CA 0.700114 1.38774 56.7533
CA -19.9208 6.79142 22.5795
CA 14.3703 20.1575 19.844
CA 3.97991 -7.67505 57.626
CA 12.9361 2.9155 61.8452
CA 10.7646 26.855 58.9182
CA -8.96352 18.928 60.0458
CA 17.0661 26.6956 30.7682
CA -4.1353 -4.56241 44.476
CA 19.5512 -10.4187 73.9721
CA 26.3844 27.7028 36.7707
CA 7.30918 0.672633 61.025
CA -9.13561 7.72406 60.8379
CA -4.14547 23.1363 46.2436
CA 30.9757 8.1065 45.4544
CA 5.35966 21.3275 31.6181
CA 13.7754 19.1058 72.3776
CA 8.58441 19.9808 63.1096
CA 1.44118 3.84727 64.0041
CA 18.6404 31.3746 69.0376
CA 7.92892 31.6861 59.6777
CA 14.7282 8.95312 64.5266
CA -4.45455 -17.8443 74.3531
CA -2.12546 22.7243 42.0322
CA 8.96931 13.1472 71.8832
CA 21.7622 8.21357 18.2786
CA -7.78784 7.51009 48.7397
CA -23.1178 -27.0394 16.8226
CA 5.29604 17.8326 20.0484
CA -9.46443 8.6206 52.135
CA 30.4571 -20.4146 63.4423
CA 26.7537 -21.563 65.1913
CA -8.86303 9.80027 65.8956
CA 15.1231 23.5919 53.7098
CA 2.57812 22.7335 13.4081
CA 8.05972 27.8627 58.3073
CA -8.43702 28.3225 22.0237
CA 19.9011 -2.64138 54.5746
CA -22.2747 4.92439 19.4525
CA -4.67455 9.28798 41.5586
CA 14.0585 36.9722 57.6722
CA 3.7493 12.6273 50.2636
CA 6.39892 27.1605 59.2534
CA 23.98 20.1423 63.3834
CA 28.4158 8.24325 43.6088
CA 8.27928 12.014 58.6109
CA 10.6944 -7.92942 52.6493
CA 33.2418 -0.452746 56.9019
CA 14.135 -9.25939 62.6854
CA 29.1009 11.043 35.4749
CA 13.8524 11.8949 34.4627
CA 18.1017 7.32164 45.245
CA 5.13904 18.3567 61.9292
CA -4.72592 38.7612 43.9342
CA -20.8096 -18.706 26.9802
CA 20.7642 34.8118 64.3818
CA 12.0253 7.22789 61.7983
CA -6.50211 16.1187 58.7346
CA -0.663962 -4.8482 52.0031
CA -0.624422 8.55202 48.9952
CA 25.5217 0.873789 55.4587
CA 15.6487 -5.52973 38.99
CA -7.70063 8.72507 61.6623
CA 22.6148 22.3569 79.8442
CA 3.26169 24.1222 25.9686
CA 1.64161 29.9045 18.9289
CA -7.89615 14.8405 48.4758
CA -10.0213 11.1865 53.3936
CA 11.1037 -1.9506 57.8672
CA -9.48336 18.5642 15.1658
CA -2.20371 17.7545 20.4117
CA -4.06475 26.5033 19.9568
CA 22.0393 31.8136 66.4022
CA 32.2767 8.02133 37.5138
CA 18.4819 -4.10753 59.5123
CA 17.3315 32.9224 73.692
CA 22.7408 29.3747 72.2319
CA 14.5084 20.4752 52.2844
CA 16.1059 23.2775 32.7573
CA 20.9749 -1.94634 47.7209
CA 31.5996 10.3217 45.2388
CA -4.5445 30.6169 49.6962
CA 21.8271 29.2906 36.5591
CA 27.0819 -2.07631 58.8653
CA 19.6494 29.6344 72.2256
CA -10.9644 24.7206 47.08
CA 0.701056 34.8293 68.3753
CA -2.10698 21.4521 49.3902
CA 20.7137 16.1816 69.2191
CA 2.5472 36.075 14.789
CA 14.7378 -5.69703 58.1352
CA 3.29604 20.6679 29.9253
CA -1.43939 23.2959 16.4652
CA 17.7926 1.79095 56.7546
CA -1.29385 22.6013 53.7025
CA 19.926 7.8983 45.8525
CA 13.486 20.3799 57.8123
CA -4.37235 8.79802 47.4011
CA -3.37688 36.5255 25.3247
CA 7.55026 18.1049 22.4018
CA 13.6719 -3.05333 48.7328
CA 32.1423 -21.1157 63.2372
CA 30.5282 -16.1452 63.3763
CA 2.01202 31.7973 17.0373
CA 10.1689 16.2843 22.3827
CA 17.7097 9.34001 76.4403
CA 2.14802 20.534 43.1484
CA 24.9964 -1.88693 52.7468
CA 8.94484 25.7918 74.6921
CA 5.65747 21.5102 38.2221
CA 18.0671 26.1675 35.3443
CA -4.83177 20.1169 42.78
CA 7.58037 13.2518 57.4272
CA 37.4998 10.1554 52.0112
CA -23.3664 0.486107 32.2445
CA 9.38278 17.577 23.5609
CA 6.6118 20.4876 28.4506
CA 21.4387 14.3552 78.9326
CA 21.5813 -5.22322 53.8122
CA 10.8079 27.0241 71.6893
CA 14.9663 19.5127 56.1174
CA 14.8948 24.8487 68.6857
CA 17.9751 -11.7712 66.5238
CA 32.0621 10.2814 41.1278
CA 6.76252 5.88124 27.3704
CA 14.5748 4.33006 28.1482
CA 19.809 22.163 38.7862
CA 24.0143 18.0918 77.0817
CA 34.0786 0.000182234 54.1038
CA 4.52615 6.95352 58.5024
CA -9.49705 12.4889 51.3222
CA 20.2833 -6.57568 49.9431
CA 13.2279 3.29095 80.1457
CA 17.3293 20.6427 34.0291
CA 4.5247 10.8087 48.3749
CA 0.147208 13.0495 48.5319
CA 29.2608 0.185001 54.1937
CA -9.05431 25.3505 47.1565
CA -0.96874 32.4632 49.2653
CA -8.4345 32.0141 19.4167
CA 13.8345 2.5229 67.4824
CA 22.6095 18.0483 30.0984
CA 11.6488 2.58021 39.9908
CA 7.54786 -6.26264 25.0614
CA -5.83566 24.704 16.6177
CA 8.53164 35.1881 22.411
CA 28.7709 9.97656 42.9207
CA -5.02152 20.5271 62.9365
CA 16.5519 -16.3242 45.4863
CA 25.4058 10.806 81.9417
CA 20.5258 -11.3615 49.3302
CA -5.56874 22.9273 20.7792
CA 32.7036 12.1495 23.0321
CA 2.11601 8.7322 49.2522
CA 0.77018 25.1822 77.344
CA 15.9197 11.8353 78.5478
CA 10.2642 8.95786 29.656
CA 24.0617 -7.23165 61.1511
CA 17.4797 13.1329 79.088
CA -6.74684 12.2591 54.4218
CA 15.5115 1.03479 29.9629
CA -7.61872 21.7548 49.6639
CA 18.5952 17.5915 32.2799
CA 9.55332 13.625 59.2322
CA 11.5496 39.8974 67.2132
CA -17.3998 -18.4409 20.9636
CA 25.8466 -8.12434 63.7385
CA 11.3043 7.91551 59.5118
CA -22.1953 2.32074 66.8675
CA 14.5183 24.3143 66.2575
CA -2.10249 25.4032 61.9336
CA 19.5745 37.3911 60.8617
CA -1.05436 27.4524 61.3163
CA -2.39629 8.39398 66.1332
CA 21.419 14.2033 69.2161
CA 30.6006 10.509 39.0949
CA 22.1411 27.0987 39.3056
CA 24.2864 31.6702 73.0899
CA 18.8904 -12.0426 70.5788
CA -3.72177 12.3857 54.9947
CA -7.28186 17.7777 61.1566
CA 7.26438 29.9507 15.9338
CA -9.24601 24.3418 22.5691
CA -6.44332 15.0496 56.8346
CA 24.2212 11.7042 45.1535
CA 16.8518 0.518969 48.8472
CA -10.9918 30.894 39.3335
CA -5.27029 20.723 45.6687
CA -11.4899 32.6918 38.1889
CA 12.9987 20.1218 40.8241
CA 15.0409 12.0905 47.4838
CA 1.95315 29.1334 25.6296
CA -20.3143 2.53912 19.8217
CA 36.3958 13.0512 38.0496
CA 10.3062 -4.58542 58.942
CA -2.3692 17.5571 49.397
CA 6.45146 20.1431 56.2467
CA 4.03271 15.9358 22.9516
CA 12.0152 35.5676 67.619
CA -10.4112 10.2795 51.2205
CA -4.86089 15.6977 47.9964
CA -8.28142 22.3419 47.8943
CA -0.323198 7.36157 47.1118
CA 21.6148 -4.89572 50.3618
CA -8.4332 34.5483 44.7531
CA 11.5505 8.38985 50.8664
CA 22.8266 3.61894 37.1467
CA -19.9644 -28.4538 17.1226
CA 12.2145 15.2735 69.0258
CA 22.8757 -3.31605 53.1017
CA 11.7366 6.55437 79.471
CA 21.3122 16.9294 71.4013
CA 7.7836 23.8791 28.295
CA 14.7578 21.9623 44.1604
CA 17.2908 21.5578 29.383
CA -6.61677 2.02063 47.3972
CA 8.6543 -5.75875 57.3604
CA 34.1611 16.7455 36.9248
CA 12.2188 31.8125 74.6091
CA 11.5346 22.0544 60.509
CA -9.64706 6.34267 49.5195
CA 7.7405 20.0039 37.9863
CA -8.07348 30.5561 47.4411
CA 13.7648 17.1392 70.2074
CA -1.72012 -9.74328 45.5432
CA 12.0349 12.5458 64.7617
CA 13.6232 15.6912 26.5573
CA -1.15121 23.1858 62.937
CA -8.03427 22.8682 63.7185
CA 19.4354 -7.2867 51.8942
CA 12.379 22.7263 34.4129
CA -25.4045 -28.4405 19.1023
CA -17.8152 -22.5459 18.1341
CA -4.52415 6.08309 64.1979
CA 32.3579 11.3603 37.7504
CA 12.218 10.7138 27.098
CA 22.8031 19.7392 47.9565
CA 18.6933 12.1325 71.0801
CA -3.08846 8.99519 60.0953
CA 11.5961 17.0809 67.1542
CA -12.6285 -0.898248 52.0341
CA -7.24209 10.0951 58.8722
CA 17.9014 -8.32197 48.2728
CA 2.85322 19.7637 33.4914
CA 6.57431 23.4888 53.6284
CA -3.28232 21.1222 46.3988
CA -7.67166 11.1889 64.7224
CA -7.69265 0.341224 46.9272
CA 12.0425 15.9277 55.4318
CA 24.8097 20.3023 48.669
CA 22.9993 29.2884 70.1271
CA 13.242 6.89643 46.9697
CA -1.57245 16.0043 56.7778
CA 9.96415 19.6369 23.9998
CA 18.7869 28.2848 70.0587
CA -9.80779 24.4617 45.6743
CA -23.7461 3.72377 20.406
CA -4.34303 23.4297 13.2066
CA 22.6853 36.6341 59.4053
CA 5.26645 25.9537 78.0037
CA 35.5955 9.52237 40.1032
CA 29.7999 -0.179712 56.1542
CA 10.9297 -9.39188 68.7921
CA 6.67807 34.8023 15.8617
CA 19.6035 17.017 78.2661
CA 18.2394 24.9183 71.6337
CA -9.67115 26.7151 45.9883
CA 0.262776 6.33049 44.9252
CA 5.65703 24.6351 19.0786
CA -7.11074 26.233 21.0843
CA -3.30037 5.82906 59.2659
CA 12.536 11.493 78.1488
CA 35.8451 8.76606 47.7441
CA 13.8603 17.3279 40.699
CA 16.3451 -11.3435 47.1325
CA 17.0304 3.42942 26.7171
CA -4.71719 18.7327 47.9059
CA 17.7752 -4.07182 40.6598
CA -5.645 28.44 16.7071
CA -11.9341 14.8496 48.7294
CA 16.7837 28.1872 32.6475
CA 6.49965 23.4791 76.4719
CA -9.31308 24.0557 18.7067
CA 12.4843 4.96382 47.1119
CA -9.20709 37.7572 44.6971
CA 20.5346 15.9627 31.3774
CA -22.8525 -19.0355 20.9663
CA -22.6549 1.33438 29.5295
CA -3.60989 24.9606 44.1427
CA 16.4465 -6.7228 55.9712
CA 16.5957 -3.70367 58.3728
CA -1.45061 24.632 67.4166
CA 17.5168 21.02 70.6778
CA 18.9834 -9.92154 67.3151
CA 17.8495 25.7941 60.4354
CA -20.5084 21.7078 76.1008
CA 10.1115 5.36442 43.6738
CA 5.12952 16.1293 50.6419
CA 10.2096 25.2151 70.0164
CA 0.819616 23.1993 61.6468
CA 26.0917 8.38596 84.8688
CA 19.3666 31.7709 72.1203
CA 0.542713 10.2049 48.3359
CA 18.0072 16.1253 66.9753
CA 27.8851 -0.690036 55.4301
CA 12.9259 36.716 61.588
CA 25.5573 5.72431 34.5458
CA 11.2163 18.3637 61.5668
CA 7.56901 6.90209 55.9796
CA 7.15923 34.0358 20.0421
CA 12.7368 9.54199 79.6852
CA 22.2392 12.8855 71.776
CA 16.1007 7.9068 74.2982
CA -1.40006 21.5623 47.5125
CA -5.10063 22.5195 19.0275
CA 4.64312 20.9714 18.238
CA -0.286558 22.5465 19.4583
CA 20.8584 26.846 40.6
CA -17.968 -21.7369 24.269
CA 18.3277 -10.3042 48.5649
CA 18.6855 -18.2288 47.4561
CA 35.9386 10.5534 50.444
CA 13.9028 21.5839 62.3267
CA 18.8879 20.9544 65.8544
CA 18.3585 15.4415 69.234
CA 20.2366 29.3433 67.8847
CA 26.5118 22.1259 52.0087
CA -25.4264 -5.68773 22.0412
CA 13.2688 -8.34274 66.0109
CA 8.51304 -3.27235 59.9827
CA 11.8433 13.9867 73.7228
CA 11.6933 7.18435 55.583
CA 6.74275 4.98002 29.4323
CA 15.2097 26.4006 37.271
CA 25.972 9.95648 47.587
CA 18.8692 -0.651123 48.1455
CA 3.55123 0.135014 52.5414
CA 10.4925 -7.92212 23.8743
CA -3.068 16.5816 59.5649
CA 14.9219 -0.686856 48.2546
CA 15.3511 22.6307 73.7653
CA -11.1689 25.0625 24.2638
CA 4.65611 15.9843 47.9551
CA 24.8846 9.54859 45.9647
CA 13.5759 -7.4198 51.3657
CA 17.1444 -1.82795 51.4997
CA 14.4201 17.611 82.9767
CA -6.1403 17.0978 47.2799
CA 7.26507 5.66597 61.2973
CA -8.24932 5.07252 49.1788
CA 14.3904 21.2498 56.3137
CA 8.80615 14.6726 73.999
CA 14.9681 -1.72259 52.84
CA 8.83442 -10.2378 25.1161
CA 7.91318 17.5091 58.6841
CA -2.87028 -3.72711 47.9396
CA -21.3771 1.98471 25.8316
CA 13.7567 21.3152 36.252
CA 30.0957 14.7354 43.0127
CA 17.9495 34.5621 66.8852
CA -5.91629 0.0991184 46.137
CA 20.4551 13.3188 60.4309
CA 5.73651 1.83778 65.8254
CA 19.1431 32.0882 65.8636
CA 9.26465 20.3266 55.1903
CA 13.7175 20.0977 31.3994
CA 14.2483 20.7577 65.7146
CA 33.7524 12.0791 41.9358
CA -9.81589 1.15485 45.4701
CA 2.65154 -5.01 57.0269
CA 18.1267 13.998 43.6227
CA -22.5661 -0.0265781 21.5158
CA 18.4043 26.6204 32.4076
CA -1.20585 24.3858 14.9575
CA -6.22349 15.5532 49.3149
CA 21.6422 -0.752313 50.7283
CA 8.46935 12.6472 54.3053
CA -27.1551 6.64722 22.6203
CA 28.7466 17.9353 41.7063
CA -9.7555 4.04979 49.6205
CA -23.2757 -19.6486 23.4596
CA 4.26003 21.8003 35.0334
CA 25.3473 4.28283 44.5139
CA 24.6185 -6.09161 49.9312
CA 20.2124 4.79561 52.6399
CA -13.4271 26.8561 17.5863
CA 9.55007 37.7894 58.2611
CA -11.8956 7.8147 65.6354
CA -0.234828 1.75059 50.4588
CA 26.4033 28.1493 69.0252
CA 9.44803 32.6128 14.1117
CA 4.66829 4.04742 64.7671
CA 13.8263 23.8177 60.7297
CA 13.0667 32.8505 69.0846
CA -11.6917 28.162 17.0642
CA 16.0932 11.4788 63.7781
CA -4.22043 13.2513 48.9435
CA 0.0707112 16.9888 49.2757
CA 15.5481 20.9393 34.4174
CA 9.0984 15.3064 24.8419
CA 33.6912 14.7781 41.1451
CA 25.3485 34.1438 60.3022
CA -3.73915 23.1927 17.5177
CA 23.1859 6.49452 45.0426
CA 10.344 10.9539 61.4219
