489

CA 26.2063 35.1432 57.5051
CA 16.5846 28.5018 32.6458
CA 2.3232 23.939 27.9392
CA -3.12019 25.0518 52.5511
CA 4.7312 12.0173 48.4325
CA 18.3356 3.7149 60.6268
CA 25.727 28.2826 41.3882
CA -26.0531 28.9047 16.9277
CA 44.8743 29.928 39.8222
CA 41.4397 41.5447 59.786
CA 36.8268 14.4994 39.1167
CA -1.6894 19.4679 55.8204
CA 16.7847 24.4778 45.4029
CA 25.7671 51.7843 67.6567
CA -0.962271 14.6524 3.70628
CA 18.9055 20.597 45.1063
CA 33.3137 15.3813 65.7622
CA 12.1476 18.7449 57.7517
CA 17.0532 13.3809 51.8331
CA 30.6686 45.4811 66.8756
CA 10.601 27.5783 39.4811
CA 4.65031 21.519 50.7047
CA 8.62113 27.8635 49.0819
CA 38.4903 39.3975 41.0294
CA 24.0246 35.4066 72.4293
CA 28.2801 33.8091 51.1248
CA -6.61055 26.0687 24.0099
CA 26.2809 38.2567 50.9039
CA 13.7247 6.42131 62.3308
CA 14.3622 18.8786 44.8196
CA 44.7931 41.6007 61.1729
CA 25.8005 17.8962 44.8579
CA 21.2172 17.4817 54.484
CA -3.72758 14.9672 2.19027
CA 15.1412 34.3819 73.6663
CA -4.05048 6.27525 4.37442
CA 28.583 31.9193 55.3075
CA 46.7599 41.7616 56.7777
CA -8.59401 31.1712 16.9853
CA 11.6525 33.4336 62.1577
CA 15.0547 14.6219 35.5936
CA 18.0596 43.723 55.8724
CA 42.35 22.7652 55.8308
CA 28.8729 38.793 52.4041
CA 17.1094 36.4469 78.0357
CA 13.0626 18.8022 34.5487
CA 12.4887 28.6083 36.2226
CA 28.829 53.8974 66.5494
CA 10.9714 31.8428 58.5408
CA -12.2785 5.25837 4.30058
CA 2.2543 28.9039 38.3252
CA 26.9938 39.3961 78.4304
CA -3.53944 8.74308 2.63284
CA 31.7705 7.31548 62.9245
CA 9.43942 40.9736 40.254
CA 40.8024 31.8285 43.1455
CA 21.1848 45.69 63.1756
CA 2.37606 28.4528 41.3593
CA 14.81 38.9434 45.2148
CA 37.3339 26.7907 67.8295
CA 33.0524 16.2331 49.2392
CA 43.5603 15.5005 47.3664
CA 38.3862 14.7953 50.785
CA 25.8405 36.1256 38.3652
CA 10.2733 34.0743 54.3004
CA 37.104 38.4005 42.9717
CA 15.112 26.7012 53.5194
CA 28.6958 44.8067 67.631
CA 43.902 22.1783 54.8789
CA 45.2344 29.3703 53.4146
CA 9.35354 17.0989 55.922
CA 48.0941 25.8302 51.1065
CA 17.6697 13.1918 44.415
CA 25.9402 10.1874 54.0281
CA 37.3045 42.9491 42.3742
CA 39.8151 14.1649 40.3922
CA 13.609 4.05366 64.3739
CA 20.3673 12.568 42.2955
CA 30.2534 17.2631 48.3427
CA 23.9872 6.25859 52.6621
CA 20.1732 34.8717 75.991
CA 29.2218 17.9051 53.2833
CA 44.0194 34.4572 53.0017
CA 14.7972 26.2699 56.5076
CA 45.3207 45.5582 54.1564
CA 20.4935 31.4699 46.6802
CA 41.7654 21.3169 54.2106
CA 20.5888 37.8832 67.8363
CA 23.3684 2.98594 53.9339
CA 35.0608 12.8128 63.2458
CA 10.6949 24.6562 42.2977
CA 36.2667 29.8028 56.33
CA 41.1581 30.6226 44.5852
CA 10.6011 34.1606 41.2853
CA -10.6972 41.7597 16.1504
CA 24.2911 39.7523 81.6955
CA 21.1524 21.8268 34.2305
CA 18.7919 10.5324 46.1534
CA 14.486 29.151 34.127
CA -10.6174 23.3592 18.9073
CA 11.4485 35.5168 58.2923
CA 37.1884 12.1575 55.9426
CA 24.3688 17.4339 59.1586
CA 25.7554 23.6267 73.1499
CA 34.7554 19 39.0755
CA 19.0438 42.3897 85.1086
CA 17.1582 42.6656 65.4982
CA 31.2436 22.0726 72.3562
CA -10.8148 28.3362 15.208
CA 33.1622 28.0334 68.0352
CA 14.0492 2.23546 56.5864
CA 17.4747 10.4065 48.1346
CA -6.7482 36.5454 16.4387
CA 22.9656 8.88726 55.8742
CA 10.0852 16.7571 45.2864
CA 14.1281 38.267 83.8473
CA 40.5531 35.8611 38.0467
CA 1.84731 30.8502 43.821
CA 27.6199 32.4419 52.7932
CA 41.995 33.58 67.9925
CA 34.4172 36.3396 44.2093
CA 40.793 36.322 44.1486
CA 10.9504 28.3939 51.6073
CA 26.772 23.3542 74.6697
CA 17.0907 25.3163 63.8467
CA 18.7388 37.4623 41.3911
CA 14.9911 21.6045 57.3014
CA 43.3034 10.8257 43.1752
CA 33.1086 45.199 70.3339
CA 20.89 29.7847 43.8277
CA 46.4105 33.9839 60.8055
CA 53.0975 38.017 75.836
CA 30.721 21.7526 69.5531
CA 23.7252 25.1333 76.9908
CA 41.0427 27.1607 36.8301
CA 21.5048 11.1794 43.054
CA 34.4488 27.2693 50.0976
CA 18.958 27.4703 43.7528
CA 11.5847 18.617 46.0383
CA 41.6002 38.7057 78.6853
CA 15.8764 42.0694 82.5157
CA 31.0546 15.5559 35.8161
CA 34.7411 14.0017 49.8911
CA 21.0532 33.7052 67.5384
CA 41.3971 24.998 56.9085
CA 23.2851 36.6057 59.4956
CA 54.6427 37.9641 77.7642
CA -16.403 26.1115 20.2159
CA 27.3151 9.12711 62.1951
CA 21.6607 31.8194 58.4831
CA 45.0244 39.1987 65.1822
CA 18.185 41.3986 78.8923
CA 33.8918 24.1839 70.9034
CA 25.0996 28.0476 75.0237
CA 28.3492 13.2715 36.4857
CA 5.82778 12.7739 4.42928
CA 32.8751 16.018 38.9137
CA -23.0562 34.2026 17.1863
CA 15.4718 20.9357 43.7373
CA 24.3764 24.2176 35.1838
CA 37.6062 33.5336 55.4184
CA 36.0637 23.0494 55.1292
CA 32.1981 17.4222 63.6684
CA -16.3183 34.378 20.5271
CA 41.3926 36.5799 70.2281
CA 6.31009 24.249 40.8198
CA 25.993 16.1093 63.5361
CA 19.187 44.7044 86.5208
CA 24.8274 11.1917 38.793
CA 24.0788 18.1551 53.4624
CA 43.7862 15.3881 41.2695
CA 15.9352 23.1049 33.1811
CA 14.326 35.3062 52.8741
CA -5.83171 20.4983 8.21725
CA 46.1193 38.1011 61.8671
CA 37.8755 19.2446 46.2952
CA -6.2652 7.84731 7.9049
CA 47.0866 26.4142 34.502
CA 28.4022 29.4318 49.748
CA -4.16607 21.4837 11.9338
CA 11.0615 20.651 54.702
CA -7.53642 24.1288 22.1739
CA -19.9751 36.6426 17.6809
CA 19.6094 41.3988 33.6224
CA 21.8538 37.2364 49.4267
CA 28.2501 19.5863 63.8441
CA 39.401 20.9026 56.9217
CA 20.1656 17.7488 36.1892
CA 37.2507 30.818 60.043
CA 20.427 40.1338 68.7249
CA 29.4231 25.5987 76.8017
CA 32.9352 24.5683 54.6054
CA 27.5159 10.0722 52.3913
CA 33.5491 42.7192 69.0334
CA 26.6666 20.0545 62.318
CA 18.5519 20.0802 67.8133
CA 36.2916 25.6481 77.6789
CA 30.906 10.5362 57.0872
CA 23.5388 25.4536 46.0489
CA 7.01362 25.1819 49.3742
CA 35.1168 13.9363 54.256
CA 40.1152 33.4041 55.3778
CA 17.6657 27.2245 35.2886
CA 3.04612 14.4887 3.12008
CA 44.4287 36.0449 56.0743
CA -1.20184 12.9045 4.08395
CA 14.0312 10.5184 32.7532
CA 10.4755 24.9322 47.0886
CA 20.8061 39.2951 41.3686
CA -1.04457 28.0124 53.7744
CA 1.07594 24.4494 34.3082
CA 20.6189 45.5001 67.8679
CA 24.5244 7.92448 57.6416
CA 14.7458 21.6093 45.4668
CA 17.1174 35.7501 68.2873
CA 32.9264 38.0176 52.0215
CA 4.4981 23 48.7036
CA 26.3472 4.72958 43.9873
CA -7.72558 34.3703 17.0509
CA 21.1337 27.2239 39.1785
CA 14.9486 34.7854 55.9737
CA 22.831 43.9745 57.2095
CA -18.2766 25.4312 15.8645
CA 28.2703 31.956 31.5518
CA 39.7038 39.4918 66.2563
CA 29.591 34.202 41.3665
CA 30.5543 22.3572 51.4773
CA 15.5562 32.6381 36.5625
CA 0.930939 25.2371 28.7157
CA 28.698 13.5449 53.512
CA 23.4918 51.1497 70.3214
CA 32.7217 27.034 72.0545
CA 28.2868 22.9273 32.5613
CA 24.6056 46.5388 74.8926
CA 31.7255 9.73555 62.7868
CA 17.3919 9.19694 61.1808
CA 40.7044 25.3621 79.8366
CA 42.8826 29.7342 52.6786
CA 28.8624 27.9458 50.774
CA 31.123 22.3256 33.4034
CA 35.666 24.193 45.2666
CA 27.1973 28.7491 76.5168
CA 38.5382 20.4705 69.817
CA 17.8016 39.1304 36.1463
CA 35.4613 23.1063 82.2824
CA -12.9559 36.4734 18.1069
CA 39.1543 34.6636 54.1774
CA 35.1931 33.7529 35.4735
CA 30.8872 22.9488 64.1072
CA 35.6921 21.5027 73.8024
CA 4.71248 28.2029 53.3735
CA 35.6895 31.287 26.8668
CA 22.8729 46.0306 72.2093
CA 20.897 41.1404 57.2915
CA 35.3873 12.8511 44.4492
CA 16.8727 41.4358 85.8236
CA 51.4199 40.3724 74.1593
CA 43.3679 22.9117 57.9786
CA -11.6841 34.1397 15.7881
CA 48.2906 19.7802 39.6868
CA 11.4447 9.21826 45.2191
CA -14.6952 4.86125 4.63458
CA 1.35835 21.2703 49.0267
CA 34.4504 41.1179 61.1903
CA 13.9109 43.2418 87.1566
CA 21.0828 11.1405 49.4418
CA 8.57719 22.1119 45.2789
CA 26.5097 19.4892 56.0066
CA 25.4536 14.6288 35.0805
CA -4.75672 13.4989 5.23876
CA 20.371 20.0797 54.0243
CA 26.1793 10.2996 47.5578
CA 48.5061 34.8138 63.7891
CA 12.6712 39.2216 43.0296
CA -10.3915 40.0079 17.9421
CA 26.0088 27.0796 54.9341
CA 32.1121 37.3213 32.4782
CA 10.5973 22.6463 51.8055
CA 8.36757 34.0588 42.0956
CA -11.8749 32.2138 20.816
CA 49.4923 37.1148 73.5641
CA 29.3949 35.7635 54.0835
CA 16.0121 11.2478 41.8711
CA 46.9543 30.0975 53.4007
CA 42.1072 42.3336 79.9495
CA 17.2704 19.8288 62.7037
CA 24.2482 26.9443 47.0317
CA 19.2199 35.8852 32.3167
CA 37.0887 31.2911 29.1007
CA 7.19033 21.178 36.4905
CA 36.4556 37.8092 57.6495
CA 19.0955 10.6742 57.8705
CA 27.3869 19.2406 48.7733
CA 26.08 10.0491 41.7248
CA 34.8903 24.226 54.4173
CA 23.1553 26.0988 64.7121
CA 2.05328 24.0229 22.1716
CA -4.67334 16.7635 4.23273
CA 24.148 44.2327 84.5228
CA 44.3744 45.2121 59.3951
CA 21.3475 53.9088 72.6607
CA -2.22726 17.8926 7.41891
CA 17.3525 18.201 37.0263
CA 39.259 15.077 55.4579
CA 34.1573 25.4558 39.7019
CA 16.5702 39.5924 83.5959
CA 14.5344 24.1463 52.3
CA 46.2384 39.6948 78.9857
CA 25.22 45.4046 60.2114
CA -0.447494 25.3982 18.012
CA 40.8925 36.3201 46.2775
CA 27.6477 18.3913 77.1809
CA 44.2935 29.2067 47.3046
CA 18.0514 6.40585 62.3257
CA 44.5285 39.592 69.8175
CA 24.2942 22.7976 37.4052
CA -11.2812 41.8514 20.9931
CA 35.9847 10.6486 40.9873
CA 43.0318 47.617 49.0156
CA 19.188 29.0232 55.818
CA 27.2447 14.5967 39.7971
CA 16.8349 37.6838 34.4093
CA 31.3034 36.6768 46.6127
CA -22.9051 30.2241 16.7661
CA 26.0153 25.1639 60.9357
CA 29.791 18.4884 65.4571
CA 43.4011 30.1146 50.0592
CA 29.6516 12.6073 40.3852
CA 50.7836 37.1416 77.3865
CA 40.1992 16.6058 55.8879
CA 30.7891 44.1139 60.4874
CA 9.00041 7.90148 49.2488
CA 15.0288 6.36161 59.9277
CA -8.36225 2.0326 2.10818
CA 6.68563 24.9208 43.0453
CA 27.3679 40.4243 73.8704
CA 48.5288 14.5727 39.9698
CA 32.5157 17.0959 74.9349
CA 11.2711 20.5346 32.1889
CA 42.429 29.3453 38.5989
CA 48.0837 38.8257 65.4343
CA 32.4439 22.2615 79.9184
CA 22.2193 36.4168 46.7201
CA 40.8813 45.1209 62.5534
CA 8.32616 22.5141 35.1599
CA 25.0236 47.3475 66.7682
CA 51.0043 23.4116 33.9677
CA 21.4545 18.2088 34.8585
CA 13.1693 16.6316 42.1327
CA 10.4636 24.3506 34.3703
CA 49.807 39.8188 60.5536
CA -14.6383 36.1488 21.0694
CA 1.85618 24.8445 51.9549
CA 26.8447 38.9054 56.0669
CA 9.98744 21.5267 57.2326
CA -8.74098 40.0966 16.9894
CA 26.0792 23.5323 37.8425
CA 40.442 37.0064 60.2577
CA 13.7136 30.4945 37.2518
CA -6.15602 24.7209 17.4521
CA 23.5893 17.4382 76.282
CA 21.8979 19.3698 31.0715
CA 39.7738 31.8809 34.4866
CA 22.7833 41.7876 58.6362
CA 28.8181 12.0658 64.736
CA 1.57332 27.3497 57.1938
CA 41.7959 13.8292 51.9654
CA 9.55931 10.8756 64.2798
CA 25.6554 45.2861 56.4184
CA -0.35545 23.4868 54.2671
CA 17.9933 33.6994 44.2414
CA 49.8189 39.3203 73.8418
CA 3.70786 23.1606 38.0836
CA 12.1238 43.5054 81.8148
CA 47.1639 21.968 36.6509
CA 41.8935 25.9664 64.3977
CA -10.8621 40.1972 22.1463
CA 36.1515 27.8532 42.2245
CA 18.0842 15.0939 39.2765
CA 34.6618 29.3876 35.1673
CA 45.7082 32.6705 72.3205
CA 27.3969 24.887 79.2333
CA 30.8082 33.5838 39.0117
CA 37.017 34.9757 61.3471
CA 2.02411 15.4558 1.03093
CA -6.38139 19.004 16.7348
CA 23.4419 43.1489 78.3455
CA 29.4162 39.2087 31.7287
CA -4.58928 28.3133 16.4187
CA 48.6374 36.8483 71.9841
CA -13.3208 38.4039 15.9772
CA 11.3788 16.8463 52.1011
CA 24.0809 48.0976 61.9568
CA 10.3517 28.5214 41.7338
CA 40.9314 33.4197 45.7334
CA -13.5429 41.4165 16.0784
CA 32.2905 34.8452 32.4283
CA 49.0412 41.1708 68.3121
CA 12.3884 5.63609 60.8361
CA 17.2489 17.3722 57.3848
CA 6.20766 40.5192 50.0624
CA -5.55736 22.3971 7.23489
CA 16.3425 40.8887 58.1337
CA 13.1409 15.2416 54.2265
CA 6.05693 39.0296 45.2402
CA 18.6331 26.4513 48.7114
CA 54.0315 40.5201 63.6471
CA 11.8914 20.3497 34.5552
CA 27.8817 8.28347 41.3038
CA 10.1983 30.344 55.2637
CA -17.5713 34.4779 17.6262
CA 27.8346 28.0553 79.7336
CA 12.3618 38.0589 56.9779
CA -13.4537 26.6468 18.2935
CA 33.5748 11.8942 62.1155
CA 14.457 11.0341 34.7572
CA -5.92129 22.8393 54.611
CA 19.7892 28.3396 54.1903
CA -16.1142 29.6234 20.1519
CA 23.1354 6.39512 38.5389
CA 22.1587 34.8855 65.7013
CA 21.3457 6.41702 46.6625
CA 44.7858 36.1334 74.088
CA 38.806 24.0038 54.9317
CA 35.1052 24.3778 59.1977
CA 36.7072 41.2557 69.4184
CA 15.2831 35.9669 71.4113
CA 39.466 20.8139 46.5096
CA 10.9931 29.5467 35.4734
CA 13.4479 33.6151 62.0811
CA 20.3562 34.1496 33.1285
CA 27.9332 49.6302 69.1191
CA 20.4503 17.3383 47.5474
CA 36.6372 19.1811 40.5697
CA 13.1311 23.1061 64.6784
CA 26.7479 22.7037 43.1525
CA 31.1176 23.2397 41.4525
CA 40.9179 22.8201 45.6802
CA 43.5785 16.7122 50.942
CA 19.691 39.3293 56.2792
CA 23.9475 6.6752 59.573
CA 40.1083 31.5998 31.7953
CA 24.0444 41.6087 82.5244
CA 36.2312 21.6354 43.6893
CA 21.641 44.8526 66.446
CA 20.3392 25.2262 53.7543
CA -7.53321 27.5805 17.1937
CA 15.9271 31.9645 65.3195
CA 44.5378 20.1112 45.443
CA 29.5897 49.4799 70.3856
CA 7.76475 13.1176 49.1036
CA 46.3098 18.3741 51.5227
CA 35.712 11.5697 43.139
CA 38.9504 32.21 53.1428
CA 22.5171 31.4298 56.1964
CA 6.75818 19.4329 50.3601
CA 50.9182 41.3238 79.155
CA 31.6183 9.14218 58.7925
CA -14.6894 30.7052 18.7158
CA 27.5907 35.0854 41.1231
CA 20.2819 36.448 36.7022
CA -7.08302 21.5988 18.3484
CA 7.93382 14.1822 46.8673
CA 17.3954 37.9577 70.2617
CA 38.4318 38.4848 67.6222
CA -11.8161 36.1136 15.8412
CA 36.1269 34.5504 44.5267
CA 43.0297 30.2685 36.1155
CA 48.811 28.0975 31.9494
CA 26.2107 36.7219 43.4729
CA 14.8804 15.0955 55.6208
CA 5.98276 33.9788 44.5125
CA 42.3391 19.8086 40.6747
CA -6.90519 3.86577 3.77264
CA 19.7823 26.7833 57.4767
CA 44.777 44.0999 61.1568
CA 21.5308 34.9108 42.1319
CA -15.9022 35.2145 14.1842
CA 27.9853 8.86185 57.7542
CA 46.7065 47.2508 51.824
CA 18.0204 45.6388 81.7121
CA 17.2873 22.231 62.5832
CA -3.26177 24.4533 17.5892
CA 11.3556 9.75063 63.027
CA 25.1071 18.702 57.605
CA 37.2305 29.5937 35.573
CA -3.15702 19.3521 17.2095
CA 19.329 37.7385 34.8656
CA 19.1123 8.26565 57.8418
