489

CA -26.9167 -8.57646 21.2548
CA 1.18083 19.0532 46.4837
CA 21.233 32.0048 63.6944
CA 13.7662 32.1941 32.4125
CA 16.0168 -1.101 58.4801
CA 13.7305 14.8687 60.8572
CA 17.2515 32.9092 67.702
CA 0.282812 27.7459 20.4976
CA 2.70123 18.0568 69.8029
CA 23.8731 8.57421 84.3051
CA -29.2489 1.20074 21.577
CA -13.9477 15.5463 51.0961
CA 17.4983 -6.03629 45.0627
CA -22.1942 7.03223 25.2166
CA -10.6101 8.94028 47.7873
CA -6.18539 9.51725 48.9214
CA 2.33244 22.6631 44.3741
CA -13.4433 8.2601 51.9892
CA -4.02541 21.131 51.4815
CA 35.3626 14.6368 43.2515
CA 17.3426 8.63357 71.6858
CA -5.19399 8.43965 38.6405
CA 16.4113 5.66708 40.8531
CA 21.1779 17.5787 66.9424
CA -3.72939 17.9232 51.4166
CA -9.66238 34.4134 38.4779
CA 17.4098 -9.2883 71.6529
CA 35.5242 11.533 45.2283
CA -10.4112 27.1638 22.873
CA 20.5174 3.10481 59.9078
CA 23.5065 8.83323 46.4534
CA -21.9693 20.5424 74.2458
CA 17.1959 32.9295 63.1076
CA 17.8357 22.6606 32.5387
CA 6.39984 27.0677 17.4754
CA 11.3262 38.1867 62.5985
CA -6.46424 17.1252 59.962
CA 5.31614 4.49444 59.3167
CA -4.37786 28.2444 22.4793
CA 17.4256 24.1112 27.3266
CA 21.5405 11.132 43.9636
CA 29.3745 7.42783 44.6893
CA 22.2912 25.6923 43.2688
CA 14.4397 4.71032 61.3953
CA 19.2552 14.3496 78.3424
CA -27.1622 -18.0576 19.2106
CA -13.4371 23.3389 20.3726
CA -6.73402 12.7971 56.5094
CA 14.2677 17.4253 75.3945
CA -11.6534 5.8588 55.6707
CA -7.20124 32.3769 45.8086
CA 21.048 28.8279 69.4817
CA 24.9969 0.765339 40.4011
CA -6.21593 15.8008 45.8558
CA 7.39368 -2.40399 62.3341
CA 14.4033 33.2881 70.5995
CA -4.2156 18.9067 67.1537
CA 2.3669 -6.52105 55.9598
CA -6.32788 32.5062 42.2514
CA 18.463 -0.359197 58.1446
CA 32.6131 12.1457 45.192
CA -2.55866 24.471 19.5015
CA 1.39892 -4.75213 53.2521
CA 19.729 35.9996 61.0435
CA -15.3699 9.82691 51.9464
CA 16.8253 31.6009 32.4974
CA 26.288 31.9057 63.28
CA -5.38892 -22.2496 76.4583
CA 22.366 3.01238 41.0571
CA 15.711 16.0714 33.8001
CA 15.9536 11.286 72.0516
CA 11.8734 6.30975 65.7299
CA -8.63436 9.22223 50.2425
CA 19.9649 11.6042 79.1203
CA 5.29085 22.1039 24.475
CA -0.598638 -0.727081 52.0933
CA 27.3629 23.0166 46.7984
CA -4.37268 26.7893 47.1377
CA 13.0738 5.62586 43.9731
CA -20.9021 1.58799 69.6224
CA -7.16088 18.4729 49.5369
CA 20.8578 3.90895 43.5651
CA 3.13861 22.6711 62.3557
CA 14.103 35.2727 62.5396
CA -4.51308 6.11034 66.5028
CA -3.99951 8.63523 44.0018
CA 14.3703 20.1575 19.844
CA 3.97991 -7.67505 57.626
CA 15.65 31.42 66.9404
CA 34.6263 7.77564 41.2251
CA -8.96352 18.928 60.0458
CA 23.2401 24.7923 52.9034
CA 2.72623 25.179 21.8013
CA 19.6956 -2.18467 62.137
CA -11.4946 9.80314 54.1037
CA -10.8717 31.7108 35.3231
CA -9.13561 7.72406 60.8379
CA 15.5563 29.6612 75.0938
CA 4.98389 10.0028 46.9047
CA -5.562 1.15239 43.5622
CA 13.7754 19.1058 72.3776
CA 8.58441 19.9808 63.1096
CA 30.0224 4.21417 33.4906
CA 18.6404 31.3746 69.0376
CA -5.70676 24.5959 12.0102
CA 14.7282 8.95312 64.5266
CA -11.4742 4.51709 53.3808
CA -2.12546 22.7243 42.0322
CA 28.2759 11.1688 44.2211
CA 8.98405 20.2622 61.3655
CA -7.78784 7.51009 48.7397
CA 27.7188 6.5263 35.5202
CA 20.8018 13.3835 74.2066
CA -9.46443 8.6206 52.135
CA 30.4571 -20.4146 63.4423
CA -1.0954 -16.1362 77.7324
CA -8.86303 9.80027 65.8956
CA 15.5639 13.4179 63.3113
CA 14.0841 29.1425 36.28
CA 17.5985 23.6418 74.6234
CA -8.43702 28.3225 22.0237
CA 19.9011 -2.64138 54.5746
CA 14.4499 17.5543 38.7361
CA -4.67455 9.28798 41.5586
CA 14.0585 36.9722 57.6722
CA -0.634313 23.2385 18.2376
CA 6.39892 27.1605 59.2534
CA 17.3195 4.2129 61.6106
CA 1.98053 1.06654 53.3794
CA -12.3709 6.13918 68.4349
CA 10.6944 -7.92942 52.6493
CA 1.29386 21.235 20.3634
CA 16.8395 31.6745 65.0674
CA 29.1009 11.043 35.4749
CA 13.8524 11.8949 34.4627
CA 26.9292 9.52097 40.2457
CA 5.13904 18.3567 61.9292
CA -3.1823 24.1988 62.7152
CA -8.89592 19.492 44.0025
CA 20.7642 34.8118 64.3818
CA 9.93333 20.2359 65.8902
CA 8.54743 -3.46179 56.3935
CA -0.663962 -4.8482 52.0031
CA 20.518 30.0648 30.7334
CA 15.6832 33.2229 72.1003
CA 3.18705 7.93894 43.6268
CA -3.5904 21.2233 16.5107
CA -4.619 15.6169 60.4991
CA 3.26169 24.1222 25.9686
CA 1.64161 29.9045 18.9289
CA -7.89615 14.8405 48.4758
CA -10.0213 11.1865 53.3936
CA -7.84145 30.1523 16.7182
CA 5.86176 14.4124 47.3806
CA -2.20371 17.7545 20.4117
CA 30.4797 11.1958 40.8654
CA 22.0393 31.8136 66.4022
CA -2.83178 5.30731 51.3186
CA 29.462 19.8496 50.1307
CA 30.6625 8.06819 38.7752
CA 24.4497 18.6034 51.9927
CA 14.5084 20.4752 52.2844
CA 17.1621 35.1633 69.1268
CA 20.8824 -5.2713 57.1348
CA -6.25433 27.3278 24.0985
CA 19.2499 14.0157 70.2846
CA 21.8271 29.2906 36.5591
CA 9.41069 23.4498 70.7128
CA 31.2235 11.2565 44.1204
CA -15.3271 16.8346 47.9697
CA 22.1968 17.9285 35.5985
CA -2.10698 21.4521 49.3902
CA 21.7602 23.5823 48.7639
CA 29.4996 6.25542 39.1385
CA 14.7378 -5.69703 58.1352
CA 3.29604 20.6679 29.9253
CA -1.43939 23.2959 16.4652
CA -6.4851 29.0208 17.2746
CA 10.8765 20.5633 39.1111
CA 25.1936 -3.31953 53.0769
CA 13.486 20.3799 57.8123
CA 2.50554 25.0814 57.8115
CA -5.4131 21.8145 43.307
CA 7.1048 19.4808 21.2415
CA 13.6719 -3.05333 48.7328
CA 32.1423 -21.1157 63.2372
CA 16.3889 13.8305 79.8597
CA 28.0361 -4.49047 52.3114
CA 29.2019 13.7131 33.821
CA 13.5211 38.9736 61.0639
CA -2.96337 21.0997 42.3429
CA -20.9523 3.96485 67.2071
CA 21.3543 22.8172 68.6793
CA 26.1249 3.66541 57.3663
CA -9.01716 10.3016 41.4013
CA -4.83177 20.1169 42.78
CA 4.34952 -0.211912 59.3582
CA 9.17275 36.2804 15.7396
CA -12.0027 9.63816 52.3066
CA 9.38278 17.577 23.5609
CA 7.64504 7.79754 49.6965
CA 5.92274 25.1667 36.5287
CA -11.3147 12.1978 54.2927
CA 10.0511 28.1664 62.7888
CA 14.9663 19.5127 56.1174
CA 14.8948 24.8487 68.6857
CA 7.15999 5.17677 58.0033
CA 22.7216 20.1404 66.2357
CA -1.61425 16.2089 42.0222
CA 13.1535 0.239998 59.5653
CA 19.809 22.163 38.7862
CA 24.0143 18.0918 77.0817
CA -3.05287 -7.89434 45.5438
CA 14.1244 32.7744 75.4097
CA -9.49705 12.4889 51.3222
CA 24.678 32.3554 67.1663
CA 13.2279 3.29095 80.1457
CA 17.3293 20.6427 34.0291
CA 24.4522 9.31134 75.2339
CA 0.147208 13.0495 48.5319
CA 2.10458 19.0857 68.3497
CA -0.102014 6.21113 62.7804
CA -3.78829 23.9456 49.8843
CA 7.05778 26.1528 74.7071
CA -10.0335 7.01926 68.0748
CA 24.6938 37.415 64.7672
CA 12.9243 19.957 53.632
CA 1.12765 15.4669 68.2833
CA -5.83566 24.704 16.6177
CA 8.78208 21.3467 27.5793
CA 28.7709 9.97656 42.9207
CA -5.02152 20.5271 62.9365
CA 16.5519 -16.3242 45.4863
CA 25.4058 10.806 81.9417
CA 15.8038 19.1192 73.634
CA -5.56874 22.9273 20.7792
CA 16.1616 18.1298 34.4294
CA 2.11601 8.7322 49.2522
CA 4.10484 3.58514 62.4457
CA 15.9197 11.8353 78.5478
CA 10.6028 16.9658 70.6838
CA 24.0617 -7.23165 61.1511
CA -1.58293 20.9356 16.2544
CA -6.74684 12.2591 54.4218
CA -8.95555 22.0646 46.1909
CA -7.61872 21.7548 49.6639
CA 18.5952 17.5915 32.2799
CA 15.4115 3.56967 48.7078
CA -3.86964 21.3844 19.7662
CA 9.47694 24.885 66.7664
CA 25.8466 -8.12434 63.7385
CA -1.95049 19.7115 44.2258
CA -22.1953 2.32074 66.8675
CA 11.1777 5.88031 59.0931
CA -10.6821 35.2655 33.9199
CA -9.37111 31.6521 37.8496
CA -1.05436 27.4524 61.3163
CA 15.1669 19.3711 36.4108
CA 20.382 3.51836 25.3255
CA 24.2234 6.60983 75.1729
CA 1.36178 9.02028 45.9451
CA -8.22585 13.4142 59.8134
CA 18.8904 -12.0426 70.5788
CA -8.75461 22.778 21.849
CA 34.181 19.1644 36.3822
CA 7.26438 29.9507 15.9338
CA 1.04558 -2.06527 46.4802
CA 18.7094 1.15475 67.9629
CA -12.631 14.6568 52.0456
CA 7.28074 32.4488 16.812
CA 11.4782 34.0449 69.7813
CA -15.569 23.5514 21.4981
CA -11.4899 32.6918 38.1889
CA 12.9987 20.1218 40.8241
CA 3.60559 29.8515 18.1138
CA 28.0067 16.5109 43.1628
CA 16.9269 8.65245 77.9722
CA 19.1819 8.30713 78.1512
CA 7.89196 28.1998 66.6413
CA 33.0708 22.0445 33.4063
CA 17.4602 8.00727 65.1347
CA 9.68537 28.8586 66.8904
CA 30.8386 8.41556 41.8369
CA -10.4112 10.2795 51.2205
CA -4.86089 15.6977 47.9964
CA 24.6973 -5.27207 52.0637
CA -0.323198 7.36157 47.1118
CA 19.9776 10.6439 77.5251
CA 28.7755 26.2509 48.377
CA 0.71088 10.364 48.8182
CA 22.64 -3.80752 48.9409
CA -19.9644 -28.4538 17.1226
CA 12.2145 15.2735 69.0258
CA 22.8757 -3.31605 53.1017
CA 29.5943 13.0919 45.2567
CA 21.3122 16.9294 71.4013
CA 7.7836 23.8791 28.295
CA 16.9584 34.0873 31.4142
CA -6.76873 17.5884 41.4996
CA -6.61677 2.02063 47.3972
CA 9.82231 4.64253 66.6413
CA 34.1611 16.7455 36.9248
CA 12.2188 31.8125 74.6091
CA 11.7994 34.332 18.4005
CA 3.08686 7.04631 47.1251
CA -5.64502 24.8064 23.1831
CA -8.07348 30.5561 47.4411
CA 13.7648 17.1392 70.2074
CA -6.90072 23.5819 45.3476
CA 14.1118 14.4424 36.4286
CA 5.32157 23.5019 29.4359
CA 2.57242 17.0731 29.2114
CA -8.03427 22.8682 63.7185
CA 3.93696 -2.66335 57.5051
CA -12.7397 12.6439 50.8013
CA -25.4045 -28.4405 19.1023
CA -2.48244 20.1987 19.1211
CA -4.52415 6.08309 64.1979
CA 14.3029 5.70048 48.5287
CA -3.5382 -6.08801 39.7172
CA 22.8031 19.7392 47.9565
CA -6.09665 4.82395 66.1685
CA -11.8628 21.6543 64.9457
CA 11.5961 17.0809 67.1542
CA -7.29795 4.86406 43.3767
CA 16.198 13.2502 76.9475
CA 0.00644028 3.93889 53.9303
CA 17.3711 -7.65694 57.8676
CA 6.57431 23.4888 53.6284
CA -3.28232 21.1222 46.3988
CA -5.92121 27.5325 18.9015
CA -6.32473 11.3036 49.858
CA 24.2242 3.17037 40.9146
CA 15.192 4.51971 53.1858
CA 13.1129 18.7706 58.7203
CA 9.98621 29.7755 56.158
CA -1.57245 16.0043 56.7778
CA 6.77875 18.9772 62.5713
CA 24.4982 9.9862 78.5567
CA 1.37684 12.7884 50.5033
CA 16.1158 16.6668 77.3065
CA 15.1603 25.3864 33.9545
CA 22.6853 36.6341 59.4053
CA 26.4074 9.46848 45.6187
CA 26.2956 20.6742 52.8754
CA -24.9105 19.672 75.9247
CA 6.05246 12.157 50.1895
CA 23.4033 8.821 49.11
CA 25.3739 16.3118 77.797
CA -1.53347 26.212 63.4713
CA -9.67115 26.7151 45.9883
CA 0.262776 6.33049 44.9252
CA 5.65703 24.6351 19.0786
CA -6.20936 20.4842 49.3307
CA -3.30037 5.82906 59.2659
CA 12.536 11.493 78.1488
CA 35.8451 8.76606 47.7441
CA -5.75255 -17.714 75.7203
CA 3.22836 28.5635 21.0445
CA 17.0304 3.42942 26.7171
CA -4.71719 18.7327 47.9059
CA -8.93004 9.16274 54.0372
CA 0.912083 14.2295 52.5855
CA -11.9341 14.8496 48.7294
CA 15.149 33.8815 77.1043
CA 5.48654 17.8227 21.3592
CA 17.2091 5.75226 27.823
CA 12.4843 4.96382 47.1119
CA -9.20709 37.7572 44.6971
CA 20.5346 15.9627 31.3774
CA -22.8525 -19.0355 20.9663
CA 24.4007 26.3658 51.1006
CA -3.60989 24.9606 44.1427
CA 16.4465 -6.7228 55.9712
CA -5.71815 -2.79244 45.5503
CA -6.65644 28.5548 48.3341
CA -28.185 -27.7105 16.6689
CA 18.9834 -9.92154 67.3151
CA 22.093 36.1147 57.3313
CA -20.5084 21.7078 76.1008
CA 1.81115 -22.3597 75.1002
CA 9.34981 34.4416 16.4697
CA 10.2096 25.2151 70.0164
CA 14.538 33.991 66.8782
CA 27.1195 13.056 48.1009
CA 19.3666 31.7709 72.1203
CA -8.82925 39.7237 48.3641
CA 18.0072 16.1253 66.9753
CA 26.1054 7.32326 45.5959
CA 12.9259 36.716 61.588
CA 19.8966 21.441 64.2185
CA 11.2163 18.3637 61.5668
CA 12.6597 4.36699 51.2018
CA 10.2062 6.22301 81.5912
CA 14.3389 35.2874 72.4998
CA 25.5857 4.85038 40.1557
CA -4.20587 23.7757 17.507
CA 13.3911 13.2007 69.6221
CA -5.10063 22.5195 19.0275
CA 33.3227 2.1293 54.0679
CA -0.329238 25.6827 46.4362
CA 20.8584 26.846 40.6
CA -17.968 -21.7369 24.269
CA -0.894567 18.6465 69.7555
CA 12.7693 16.4664 52.3224
CA 17.9418 18.3604 49.2838
CA 13.9028 21.5839 62.3267
CA 18.8879 20.9544 65.8544
CA 21.5575 4.93451 57.5464
CA 19.8606 14.5204 76.4946
CA -6.03682 21.1649 40.6188
CA -25.4264 -5.68773 22.0412
CA 23.3441 -1.62341 58.4073
CA 13.9938 5.85261 64.2473
CA -9.90787 8.76376 56.3886
CA 11.6933 7.18435 55.583
CA -7.52114 18.7248 47.5851
CA 15.2097 26.4006 37.271
CA 25.972 9.95648 47.587
CA 17.196 -17.6329 44.1286
CA 10.6915 38.4348 56.9566
CA 8.35362 14.6342 71.2907
CA 7.24064 23.7496 37.3515
CA 14.9219 -0.686856 48.2546
CA -4.69205 23.1001 62.6
CA 34.7209 14.1215 47.6657
CA 4.65611 15.9843 47.9551
CA -6.2179 8.48466 67.494
CA -8.09704 27.5674 19.9442
CA 13.2744 25.8837 67.5707
CA 21.3941 -2.50294 58.1568
CA -6.1403 17.0978 47.2799
CA 13.4419 16.5791 34.3108
CA -8.24932 5.07252 49.1788
CA 12.8516 24.1498 69.1809
CA 8.80615 14.6726 73.999
CA -16.5649 -18.2232 16.7491
CA 8.83442 -10.2378 25.1161
CA 7.91318 17.5091 58.6841
CA 25.2142 26.1313 42.9968
CA 15.6688 2.30514 60.4694
CA 13.7567 21.3152 36.252
CA 30.0957 14.7354 43.0127
CA -5.66546 28.9663 20.835
CA 15.89 -16.3309 41.7905
CA 13.3414 25.4323 34.8362
CA 17.8602 28.9289 62.1337
CA 19.1431 32.0882 65.8636
CA -11.4323 7.35944 54.0979
CA 13.7175 20.0977 31.3994
CA 14.2483 20.7577 65.7146
CA 31.8446 2.81682 32.7378
CA -9.81589 1.15485 45.4701
CA 18.6531 28.4924 74.8862
CA -22.5541 5.68854 27.1747
CA -6.76414 7.93936 51.5328
CA 18.4043 26.6204 32.4076
CA 24.0347 2.58241 42.6301
CA -6.22349 15.5532 49.3149
CA 16.2383 23.7233 35.2096
CA 8.46935 12.6472 54.3053
CA -27.1551 6.64722 22.6203
CA -1.43746 -6.52286 53.8561
CA 12.4157 22.308 26.238
CA 1.79147 -0.818816 52.1312
CA -0.970315 17.3743 45.8481
CA 10.1556 22.347 28.7066
CA 17.2038 17.3008 41.5861
CA 11.268 7.57704 26.8844
CA -5.32845 -5.65106 44.6585
CA 9.55007 37.7894 58.2611
CA -11.8956 7.8147 65.6354
CA 29.0751 2.07873 53.8523
CA 19.41 9.90033 75.3381
CA -8.69034 20.8829 20.6563
CA -15.555 -18.9892 13.8344
CA 8.55011 27.6267 69.9197
CA 13.0667 32.8505 69.0846
CA 20.4516 5.0655 73.4051
CA 16.0932 11.4788 63.7781
CA -4.22043 13.2513 48.9435
CA -1.13173 -1.43065 46.2939
CA 15.5481 20.9393 34.4174
CA 8.68159 32.1771 58.8515
CA 33.6912 14.7781 41.1451
CA -19.701 -21.271 26.5056
CA 15.5437 -4.92007 49.6011
CA 23.1859 6.49452 45.0426
CA 8.45535 6.98005 59.9612
