489

CA -26.9167 -8.57646 21.2548
CA 1.18083 19.0532 46.4837
CA 28.6063 1.75886 39.6639
CA 9.28139 17.7781 18.7473
CA 16.0168 -1.101 58.4801
CA 13.7305 14.8687 60.8572
CA 10.9762 5.73343 37.5095
CA 0.282812 27.7459 20.4976
CA 2.70123 18.0568 69.8029
CA 10.676 32.1013 17.5684
CA -29.2489 1.20074 21.577
CA -13.9477 15.5463 51.0961
CA 9.06728 31.0316 17.2653
CA -11.165 32.6185 46.7005
CA -3.65088 23.2411 61.0392
CA 19.6784 20.5289 66.3394
CA 2.33244 22.6631 44.3741
CA 23.404 35.4672 68.9817
CA 4.95369 19.6099 24.2279
CA 2.71767 10.3652 43.1119
CA 4.97183 22.6988 19.166
CA -8.2756 5.39273 68.4475
CA 16.4113 5.66708 40.8531
CA 21.3576 17.8881 44.3943
CA 14.8131 -5.66251 53.2842
CA 18.5254 28.908 30.4165
CA 17.4098 -9.2883 71.6529
CA -16.021 -20.819 13.4823
CA -3.00608 22.1172 22.6154
CA 20.5174 3.10481 59.9078
CA 23.5065 8.83323 46.4534
CA 9.43383 35.0367 57.4025
CA 17.1959 32.9295 63.1076
CA -14.7159 15.3331 49.416
CA 21.5675 6.62071 60.1355
CA -0.257807 15.7297 55.6044
CA 33.5647 23.1384 35.6368
CA 5.31614 4.49444 59.3167
CA -4.37786 28.2444 22.4793
CA 8.60648 33.4087 22.6679
CA 20.4235 16.624 76.2776
CA 16.682 2.46345 56.7861
CA 18.9973 5.66608 41.298
CA 14.4397 4.71032 61.3953
CA 21.1269 31.2845 41.4643
CA -10.3287 34.4269 47.6891
CA 15.0554 22.999 40.373
CA 32.1709 -16.9008 62.1927
CA 14.2677 17.4253 75.3945
CA 8.78468 5.4077 39.3802
CA 26.9556 0.763565 35.0015
CA 24.5042 19.0881 45.7641
CA 24.9969 0.765339 40.4011
CA -6.21593 15.8008 45.8558
CA -2.09707 16.9388 48.4872
CA 16.5523 28.0036 30.4124
CA -4.2156 18.9067 67.1537
CA 10.6506 5.01311 44.2879
CA -6.32788 32.5062 42.2514
CA 7.42608 14.1588 59.5362
CA 32.6131 12.1457 45.192
CA -2.55866 24.471 19.5015
CA 14.8612 26.1085 78.0527
CA 19.729 35.9996 61.0435
CA 23.1325 1.35436 35.8761
CA -8.4104 30.4526 20.7868
CA 26.288 31.9057 63.28
CA -5.38892 -22.2496 76.4583
CA 19.3937 14.2804 34.9528
CA 15.711 16.0714 33.8001
CA 15.3854 22.5345 31.2966
CA 7.24154 3.74978 43.5588
CA -1.13542 24.9591 14.9134
CA 19.9649 11.6042 79.1203
CA 29.0315 -1.6012 53.7037
CA 13.6975 31.957 66.1603
CA 11.1443 24.584 30.227
CA 19.9778 -12.1551 72.5412
CA 13.0738 5.62586 43.9731
CA -2.07868 -5.0183 44.6636
CA 4.42988 21.5353 62.9728
CA 20.8578 3.90895 43.5651
CA 11.614 -18.4674 40.6539
CA -0.256407 22.5836 57.9976
CA -4.51308 6.11034 66.5028
CA -3.99951 8.63523 44.0018
CA 15.6267 18.1743 31.5695
CA -15.1444 20.3651 42.9082
CA 3.54525 14.2882 48.9762
CA 10.5234 14.2013 33.4611
CA -8.96352 18.928 60.0458
CA 12.1367 9.34082 27.7107
CA 2.72623 25.179 21.8013
CA 19.6956 -2.18467 62.137
CA 12.1851 20.2732 61.7087
CA 19.9164 18.2929 76.9654
CA 28.0617 -7.65122 61.8852
CA 15.5563 29.6612 75.0938
CA 4.98389 10.0028 46.9047
CA 23.8236 11.8 80.9243
CA 15.7005 -11.9653 72.6162
CA 8.58441 19.9808 63.1096
CA 6.51302 6.55928 78.7264
CA 18.6404 31.3746 69.0376
CA 38.3862 6.24591 44.3981
CA 14.7282 8.95312 64.5266
CA -14.3022 12.9608 53.4248
CA 11.4222 20.87 28.6456
CA 27.9922 3.09973 35.6345
CA 8.98405 20.2622 61.3655
CA -7.78784 7.51009 48.7397
CA -13.2477 12.1951 56.0926
CA 20.8018 13.3835 74.2066
CA -9.46443 8.6206 52.135
CA 30.4571 -20.4146 63.4423
CA -1.0954 -16.1362 77.7324
CA 17.2243 32.9238 67.825
CA 15.5639 13.4179 63.3113
CA 11.4232 -1.45467 47.0268
CA -1.02465 10.9553 42.8887
CA 15.2852 -19.877 40.6484
CA 24.1917 2.11054 44.6722
CA 3.07286 22.772 31.7408
CA 7.70584 -0.834588 54.3745
CA 14.0585 36.9722 57.6722
CA -0.634313 23.2385 18.2376
CA 13.6027 5.93393 51.4386
CA 20.6067 6.61744 57.843
CA 1.98053 1.06654 53.3794
CA -6.83801 5.36389 47.7971
CA -1.85139 15.2955 51.4316
CA 1.29386 21.235 20.3634
CA 16.8395 31.6745 65.0674
CA 29.1009 11.043 35.4749
CA 13.8524 11.8949 34.4627
CA 26.9292 9.52097 40.2457
CA 17.4884 24.2843 30.119
CA -13.2218 21.9443 46.6042
CA 28.3193 8.34044 50.7979
CA 25.499 2.06283 39.072
CA -5.91054 15.3917 52.7339
CA 8.54743 -3.46179 56.3935
CA -0.663962 -4.8482 52.0031
CA -9.73393 6.4929 43.1189
CA 15.6832 33.2229 72.1003
CA 14.5595 18.7653 51.3755
CA 10.946 31.2966 55.2556
CA -4.619 15.6169 60.4991
CA -14.2071 15.6906 53.277
CA 11.813 19.3653 50.7337
CA 2.04016 -6.64046 48.3178
CA -10.0213 11.1865 53.3936
CA -7.93561 12.2301 53.2981
CA 5.86176 14.4124 47.3806
CA 16.4926 34.3259 57.1353
CA 16.0985 -13.9725 71.9211
CA 6.90972 21.5684 19.0382
CA -2.83178 5.30731 51.3186
CA -2.11887 18.4025 47.3505
CA 30.6625 8.06819 38.7752
CA 21.609 22.2348 26.2556
CA 16.2606 11.8129 32.9856
CA -6.54269 10.2513 53.8029
CA 3.07435 25.8134 18.6022
CA 27.5808 3.23232 38.3575
CA 28.7525 0.391166 35.1636
CA 19.5698 2.78865 68.9495
CA 10.5733 24.6938 25.4124
CA 31.2235 11.2565 44.1204
CA -15.3271 16.8346 47.9697
CA -2.43414 4.79581 67.063
CA 18.4731 -3.25253 51.1531
CA 21.7602 23.5823 48.7639
CA 29.4996 6.25542 39.1385
CA 14.7378 -5.69703 58.1352
CA 3.29604 20.6679 29.9253
CA -1.43939 23.2959 16.4652
CA 19.0142 21.1134 33.2497
CA 10.8765 20.5633 39.1111
CA 0.191839 17.6342 55.9573
CA 13.486 20.3799 57.8123
CA 22.1979 -0.994657 52.9568
CA -5.4131 21.8145 43.307
CA -5.00878 30.3702 23.3993
CA 13.6719 -3.05333 48.7328
CA -8.97232 11.0929 49.0844
CA 16.3889 13.8305 79.8597
CA 0.0302544 20.9238 59.9555
CA 3.66283 11.2261 46.8581
CA 0.0784284 5.95797 65.9533
CA -10.219 19.0123 19.8328
CA 14.876 24.1782 32.3784
CA 17.1432 -8.70684 74.8249
CA 20.9423 6.44439 44.058
CA -9.01716 10.3016 41.4013
CA 31.2398 17.0039 43.7419
CA 18.5451 21.9347 30.1813
CA 17.9117 17.0126 35.0375
CA -12.0027 9.63816 52.3066
CA 9.38278 17.577 23.5609
CA 14.075 6.26424 49.1745
CA 5.92274 25.1667 36.5287
CA -11.3147 12.1978 54.2927
CA 15.7287 6.86331 43.9148
CA 14.9663 19.5127 56.1174
CA 25.047 30.3353 70.6855
CA 13.3283 -16.3949 37.7435
CA -15.9677 20.0468 48.0954
CA 35.6059 12.3117 37.9912
CA 33.9331 8.1782 39.54
CA 19.809 22.163 38.7862
CA -7.96771 18.3177 44.0887
CA -3.01311 3.74601 55.0933
CA -8.93493 32.1169 16.0965
CA -5.00449 22.724 16.0077
CA 13.5822 -7.65088 57.9018
CA 16.9109 -0.769206 53.5096
CA -5.1531 15.0081 58.7803
CA 8.89441 12.5392 68.5458
CA 21.1196 28.3312 77.0876
CA -3.94698 -7.56088 41.738
CA 2.4602 25.083 24.2075
CA 17.0221 0.877272 49.8882
CA 28.8129 1.20025 30.5435
CA -10.0335 7.01926 68.0748
CA -29.82 -23.1578 17.4708
CA 5.279 28.5573 74.1564
CA -1.02826 3.50169 63.7489
CA -5.83566 24.704 16.6177
CA 11.9258 27.943 15.026
CA 9.1617 18.0758 53.5524
CA 12.3901 0.525518 57.0942
CA -3.6232 -4.26609 40.2052
CA 10.0667 -4.48865 49.172
CA 15.8038 19.1192 73.634
CA 12.0951 22.7898 50.0979
CA -9.59684 16.4711 54.4272
CA 13.0763 -16.3023 42.5569
CA 14.7448 1.2957 54.0938
CA 2.21189 -1.42113 55.0164
CA 19.2039 0.153724 65.7233
CA 24.0617 -7.23165 61.1511
CA 11.394 18.1533 65.2792
CA 1.94425 28.1363 18.274
CA -8.10764 17.7959 61.2526
CA 19.8363 13.3195 31.623
CA -2.88085 19.5863 14.4463
CA -3.09974 24.0238 45.0796
CA -5.91425 23.6244 42.5954
CA 9.47694 24.885 66.7664
CA 27.5087 19.03 53.616
CA -1.95049 19.7115 44.2258
CA -0.504585 23.1388 61.2635
CA -4.68193 25.2548 26.3701
CA -10.6821 35.2655 33.9199
CA 15.518 3.63643 54.8158
CA 17.016 20.2776 35.9323
CA 17.0316 21.7959 50.5393
CA 20.382 3.51836 25.3255
CA 24.2234 6.60983 75.1729
CA 19.1642 1.82292 55.5531
CA 4.06296 22.1989 28.5289
CA 34.5857 15.1794 44.0654
CA 10.4153 10.7129 51.1688
CA 4.49433 24.703 33.0044
CA 7.26438 29.9507 15.9338
CA 1.04558 -2.06527 46.4802
CA 18.7094 1.15475 67.9629
CA 19.3717 35.2522 67.4938
CA -8.79537 6.62329 64.4838
CA 12.0314 12.3802 32.4777
CA -15.569 23.5514 21.4981
CA 17.2145 30.8997 70.7836
CA 12.9987 20.1218 40.8241
CA 18.8936 17.6827 74.1742
CA 28.0067 16.5109 43.1628
CA 21.6 9.42609 74.2109
CA -1.79023 4.19558 59.503
CA 7.89196 28.1998 66.6413
CA -11.5113 10.872 48.448
CA 17.4602 8.00727 65.1347
CA 7.74805 17.039 25.7649
CA 31.0071 15.6172 37.3263
CA -10.4112 10.2795 51.2205
CA -4.86089 15.6977 47.9964
CA 24.6973 -5.27207 52.0637
CA 32.2362 -23.3937 62.2601
CA 19.9776 10.6439 77.5251
CA 14.276 18.5754 32.796
CA 20.2346 -4.04883 52.4486
CA 22.64 -3.80752 48.9409
CA 11.8568 4.15645 60.16
CA 8.03659 8.62553 66.9597
CA -11.8423 33.1129 51.1821
CA 29.5943 13.0919 45.2567
CA 0.419481 22.2696 23.5797
CA -21.1726 7.32366 66.2629
CA 8.68454 18.6558 56.9945
CA 14.2326 25.3986 40.0936
CA -6.61677 2.02063 47.3972
CA 9.82231 4.64253 66.6413
CA 34.1611 16.7455 36.9248
CA 16.7176 4.95668 60.0706
CA 21.2653 -7.47212 64.5429
CA 13.3384 24.9508 28.2522
CA 9.82131 22.7797 67.4291
CA -8.07348 30.5561 47.4411
CA 13.7648 17.1392 70.2074
CA -6.90072 23.5819 45.3476
CA 16.9637 30.7353 67.5562
CA 11.8919 19.9927 66.2374
CA 2.57242 17.0731 29.2114
CA -4.42042 25.5296 18.7133
CA 35.6252 -21.9258 63.682
CA -6.32625 7.37708 64.2658
CA 29.93 18.9973 55.8493
CA -2.48244 20.1987 19.1211
CA -4.52415 6.08309 64.1979
CA 13.2328 10.9687 60.5778
CA -3.5382 -6.08801 39.7172
CA 14.1198 29.8793 56.8238
CA -6.09665 4.82395 66.1685
CA 18.4626 4.81401 59.4411
CA -7.14509 18.6828 62.7406
CA -7.29795 4.86406 43.3767
CA -9.84405 35.4831 50.3365
CA 3.54599 1.08381 55.9339
CA 12.9104 15.1782 74.0123
CA -12.5346 21.6496 42.4138
CA -8.16528 4.52841 55.0724
CA -5.92121 27.5325 18.9015
CA 16.5763 -12.5201 76.0334
CA 24.2242 3.17037 40.9146
CA 15.192 4.51971 53.1858
CA 28.4774 14.2795 43.7822
CA 9.98621 29.7755 56.158
CA 19.8145 -13.4647 75.6514
CA 14.1631 28.4265 67.1638
CA 9.13029 6.28458 52.8472
CA 1.37684 12.7884 50.5033
CA 22.0795 -0.17698 44.3799
CA 15.1603 25.3864 33.9545
CA 22.6853 36.6341 59.4053
CA 19.4627 16.0568 79.0056
CA 26.2956 20.6742 52.8754
CA -24.9105 19.672 75.9247
CA -2.01191 19.0322 59.884
CA 23.4033 8.821 49.11
CA 17.0565 -13.5011 69.883
CA -1.53347 26.212 63.4713
CA -9.67115 26.7151 45.9883
CA 0.262776 6.33049 44.9252
CA 11.9086 6.76402 42.0758
CA 13.1421 13.3083 53.2502
CA 22.7116 8.04554 73.3484
CA 18.1128 3.70036 54.4117
CA 35.8451 8.76606 47.7441
CA 11.5322 5.25131 68.8552
CA 3.22836 28.5635 21.0445
CA 23.9495 -5.96958 45.9333
CA -4.71719 18.7327 47.9059
CA 21.8632 -5.08257 45.6752
CA 0.718415 22.4859 45.6509
CA -17.9758 -15.2382 26.8526
CA 0.0704173 19.3677 51.3572
CA 23.3049 22.6165 68.2583
CA 17.2091 5.75226 27.823
CA 9.4775 22.0712 33.3531
CA 7.61753 13.7409 50.4182
CA -12.2739 10.4779 61.1315
CA -22.8525 -19.0355 20.9663
CA -1.29165 13.7671 49.3525
CA 21.8835 29.6963 43.8081
CA 15.1375 12.5806 64.9128
CA 15.9139 3.39598 64.9202
CA 3.85228 23.6554 44.6251
CA -8.8067 4.89735 65.3599
CA -8.0691 18.1732 46.0656
CA 7.53326 26.9943 53.6034
CA 1.80691 34.4516 22.5161
CA 13.5577 15.9804 32.6052
CA 8.64327 8.12577 51.2401
CA 8.64918 26.2268 33.6722
CA 14.538 33.991 66.8782
CA 27.1195 13.056 48.1009
CA 6.38993 33.1541 20.7539
CA -3.07113 12.9595 45.7514
CA 12.7546 3.94599 69.1798
CA 13.079 11.5671 71.9843
CA -26.3956 23.6527 76.9904
CA -1.71882 21.5812 13.1913
CA -3.18183 29.401 17.6126
CA 32.7924 11.7645 42.6316
CA 7.78244 -6.16052 54.3433
CA 14.3389 35.2874 72.4998
CA 8.05625 4.84931 75.7765
CA -4.20587 23.7757 17.507
CA 26.1578 -7.01273 62.8226
CA -5.10063 22.5195 19.0275
CA 0.931275 8.04449 62.7813
CA 11.0772 32.1838 62.5313
CA 6.84888 17.1765 50.9555
CA -14.2769 18.642 50.1887
CA 28.3403 10.8276 49.9889
CA 13.6531 38.1198 56.2769
CA 4.57728 21.3461 20.6052
CA -3.30268 -21.856 72.3116
CA 14.0441 26.5356 42.8113
CA 0.0142587 3.8166 58.298
CA 19.8606 14.5204 76.4946
CA 20.1183 12.712 77.4031
CA -25.4264 -5.68773 22.0412
CA -5.77305 24.8346 46.5346
CA 22.7118 8.34539 77.2
CA -11.8629 9.9486 70.6356
CA 8.17563 15.4768 57.2657
CA 14.8406 31.8915 57.7542
CA 15.2097 26.4006 37.271
CA 15.8122 12.6162 35.6173
CA -1.65915 9.50668 45.8403
CA 10.6915 38.4348 56.9566
CA 21.4976 15.6222 78.1836
CA 7.24064 23.7496 37.3515
CA 14.6139 4.48105 49.0855
CA -6.51765 24.9101 50.5029
CA 34.7209 14.1215 47.6657
CA 4.65611 15.9843 47.9551
CA -6.2179 8.48466 67.494
CA 24.5226 8.54758 77.7335
CA 23.426 22.4857 49.668
CA 21.3941 -2.50294 58.1568
CA -14.4274 11.2832 59.1378
CA 7.59814 24.5489 28.3224
CA 16.0232 23.5422 76.4673
CA 9.5541 26.2439 69.7467
CA -8.11268 33.3584 47.237
CA 4.92343 2.57174 55.8309
CA 18.1679 36.1215 64.6355
CA 7.91318 17.5091 58.6841
CA 31.8127 4.74567 35.3789
CA -13.2044 7.76285 59.9968
CA 13.7567 21.3152 36.252
CA 30.0957 14.7354 43.0127
CA -0.047552 15.8694 29.0859
CA 24.1309 19.8607 50.802
CA 20.1701 29.3718 28.4385
CA 17.8602 28.9289 62.1337
CA -9.73131 5.2399 49.7626
CA 17.9744 22.3944 64.5537
CA 12.0847 28.3918 51.031
CA 14.2483 20.7577 65.7146
CA 31.8446 2.81682 32.7378
CA -9.81589 1.15485 45.4701
CA 18.6531 28.4924 74.8862
CA -13.9098 20.6503 44.7502
CA -6.76414 7.93936 51.5328
CA 18.4043 26.6204 32.4076
CA 24.0347 2.58241 42.6301
CA -6.22349 15.5532 49.3149
CA 21.413 5.1427 53.9515
CA 8.46935 12.6472 54.3053
CA 8.30837 5.14355 78.5858
CA 6.70876 22.7214 28.1895
CA 5.52328 28.4444 19.2098
CA 1.79147 -0.818816 52.1312
CA -0.970315 17.3743 45.8481
CA -16.3962 22.8148 42.4997
CA 17.2038 17.3008 41.5861
CA 11.268 7.57704 26.8844
CA -0.432187 3.7294 61.4169
CA 9.55007 37.7894 58.2611
CA 1.49996 -8.39849 49.8077
CA -8.65921 16.2441 46.7523
CA 2.50098 30.8984 21.9582
CA 20.9818 8.14876 75.9695
CA -15.555 -18.9892 13.8344
CA -8.28423 13.7167 51.9599
CA -5.22379 13.1815 43.8099
CA -9.09584 11.0731 58.6513
CA 16.0932 11.4788 63.7781
CA 15.2837 26.5556 32.3563
CA 3.1833 16.9074 27.067
CA 15.5481 20.9393 34.4174
CA -8.68754 20.7818 62.3632
CA 33.6912 14.7781 41.1451
CA -8.06512 13.8195 47.1015
CA 20.5545 18.2311 34.8568
CA 6.24664 -2.11985 50.6454
CA 2.66669 26.8419 24.5427
