489

CA 12.931 16.256 22.8896
CA 8.89153 -11.5917 73.2801
CA -3.16603 -6.75987 57.731
CA -20.0175 -33.8387 43.2055
CA 16.1953 12.1294 17.7774
CA 4.82091 -18.0185 51.5682
CA 18.9507 25.1513 47.7196
CA 14.0203 5.24922 75.6277
CA 35.9294 -7.96736 50.4419
CA 34.1164 -6.34308 40.4788
CA -17.112 7.35056 52.2378
CA -28.8314 0.373136 72.4179
CA -4.95453 -5.86967 58.2344
CA 23.0854 -12.1014 28.2574
CA -4.73566 3.79841 31.6616
CA 0.83993 4.14244 40.1475
CA 33.8635 -5.18952 38.5294
CA 27.8736 -16.3184 26.4361
CA -18.7824 1.85692 49.3096
CA 21.2028 9.11686 33.1149
CA -18.3825 2.57606 46.9136
CA -12.3667 -7.71173 55.8874
CA -29.1315 -3.77993 48.2626
CA 2.7749 -2.32404 29.8542
CA 14.6766 -11.2542 71.7215
CA 1.43031 -6.7222 49.6998
CA -16.5702 4.89549 60.346
CA 23.0804 23.3157 56.0876
CA -2.62787 -6.63761 11.6869
CA 15.9922 9.54511 64.5827
CA -28.3133 -1.00268 53.2164
CA 15.5259 23.6037 43.1254
CA 21.1868 8.77755 24.5988
CA -24.3636 -1.11665 57.1581
CA -3.84114 29.6687 69.5107
CA -2.79769 19.2997 19.225
CA -24.8883 11.2796 74.5251
CA -26.7238 11.0247 49.4534
CA -34.8467 6.80794 55.6048
CA 23.4792 -8.01378 47.8788
CA 9.04818 -10.7346 79.7884
CA -16.5487 -1.94572 26.8425
CA -2.57152 -14.8877 17.2213
CA -12.0809 25.4072 76.0545
CA -7.0021 -4.23456 79.8001
CA 14.9554 -4.32058 73.9999
CA -13.5667 -3.30525 28.6228
CA 25.7101 6.05116 29.2392
CA -15.4648 38.2119 51.3163
CA -18.3026 11.9665 42.8087
CA 24.1524 9.47324 66.6769
CA 7.01962 15.9886 31.6782
CA -1.22966 -7.6635 58.2575
CA 3.55591 -9.77962 88.594
CA -20.034 8.37717 45.1373
CA 5.81142 -7.50175 48.0775
CA -30.2728 -34.5142 39.6296
CA 12.6029 25.9479 44.3158
CA -25.6516 -6.57175 78.6204
CA -16.9167 0.0529432 26.4178
CA 5.12843 -12.4732 86.0405
CA 0.00419032 -4.83107 72.7359
CA 11.3777 7.33084 61.9124
CA -21.8223 6.82073 40.5431
CA 8.52569 -12.3158 49.0749
CA -32.8815 -3.33828 66.0558
CA 17.7479 -24.9552 58.6505
CA -30.5033 -4.97956 64.4575
CA -18.4626 25.0977 34.8706
CA -24.7908 4.26371 58.8973
CA -7.79661 6.8792 10.5266
CA 23.9449 -15.1056 29.0598
CA 24.5246 7.68957 68.7371
CA -17.4577 6.44991 29.3393
CA -4.09048 -7.23388 50.1325
CA -1.42923 -21.1011 44.3585
CA 3.63978 -3.90654 45.6105
CA 20.5686 7.27095 30.0698
CA -2.68559 -16.6791 43.7049
CA 15.7316 12.3247 68.9363
CA -23.3118 10.2499 42.5463
CA -12.5874 -24.4512 67.9172
CA -28.9011 -1.85686 47.063
CA -23.9519 12.6663 44.6735
CA 15.7329 0.806962 74.9824
CA 3.56473 8.55607 77.7605
CA 10.001 26.7006 38.8459
CA 20.0238 14.9036 74.2358
CA 1.73577 -8.65242 56.1307
CA -7.3472 -16.7104 40.9391
CA -22.1986 9.57102 45.5747
CA -7.31324 -19.9921 63.0609
CA 15.0289 -18.2666 51.4063
CA 35.6157 -5.0575 59.7525
CA -10.0191 22.9119 45.8682
CA -12.6854 -3.07596 32.3872
CA -3.93688 12.5227 40.6029
CA 5.69852 14.9499 33.6845
CA -0.89058 14.237 19.6106
CA -11.8326 10.1699 15.3128
CA -21.9806 11.6102 63.3883
CA -28.0512 -5.40511 52.3213
CA 0.014099 6.07524 36.4064
CA -34.9804 5.01737 56.9239
CA -8.84749 11.5606 27.3115
CA 15.7324 12.0674 58.748
CA 12.903 27.2373 46.7206
CA -7.08626 15.0186 27.1836
CA 21.6835 3.8255 24.2035
CA -8.82082 -11.5259 13.4972
CA -3.45035 9.89055 40.4686
CA 5.43554 19.8703 70.7348
CA 8.60445 -5.8902 31.8085
CA -21.7909 10.6485 54.3662
CA 11.849 9.4332 64.4295
CA -21.4376 0.471053 28.5786
CA 25.8781 11.8468 23.8239
CA 1.3462 10.5131 67.7913
CA -37.9457 0.563815 61.4262
CA -8.72749 -18.3997 41.724
CA -33.7165 6.76357 46.7344
CA -26.1195 -3.89593 78.6929
CA 2.5661 -6.19157 44.6055
CA -40.2953 1.74282 57.7664
CA -28.45 -22.406 31.7444
CA -16.5114 18.1751 18.154
CA -15.3228 -19.4996 22.402
CA 11.8463 -10.4854 79.7777
CA 24.4339 20.8102 47.5223
CA -4.85109 -12.2909 37.22
CA 5.9966 -15.0649 54.37
CA -39.3306 1.07466 54.8607
CA 37.7498 -6.41035 63.5803
CA -7.30107 10.8889 19.5344
CA -27.3466 10.4663 66.2438
CA 32.2152 1.0484 70.5178
CA 13.5409 31.6021 44.8751
CA 22.18 -20.5851 75.8923
CA 26.421 9.14794 28.4978
CA 3.46054 -14.5409 49.4837
CA 15.1034 2.76245 78.5297
CA -29.9787 -5.42377 53.1542
CA 14.0898 17.0804 20.0779
CA 5.22522 -24.3616 46.2987
CA -24.1866 -1.14488 50.1937
CA 10.5799 26.835 43.0568
CA -20.7515 7.82282 34.0535
CA 13.059 -13.6911 59.32
CA -20.5072 1.37279 54.2516
CA -21.4183 4.71832 36.7661
CA 26.7889 6.5293 26.2899
CA 23.8487 -18.6205 78.1151
CA 1.98131 -16.343 50.2609
CA 9.17514 24.8212 39.2128
CA 21.1203 -8.1073 34.9409
CA -20.2294 13.9742 64.2507
CA -35.9467 0.928275 45.6746
CA -26.7276 13.7894 47.2702
CA -25.1016 7.25139 49.7935
CA 24.4318 13.6355 23.5145
CA -25.4948 4.39016 53.0424
CA -27.8474 5.87545 54.8977
CA -10.8841 -18.5344 72.96
CA 20.3718 -11.3762 49.7876
CA -20.8038 -3.02344 44.0147
CA -25.4978 9.80647 52.6383
CA 18.6525 -4.87235 37.293
CA -4.19177 23.7298 19.0187
CA -12.1194 -2.73032 26.2392
CA -0.0253304 -0.938829 68.5731
CA -3.78157 -9.36597 78.3944
CA -3.7986 -8.26954 14.7808
CA 22.6728 -9.67924 36.6923
CA -5.70245 -4.03592 20.8864
CA -6.58017 -16.0585 29.8877
CA -16.8995 -1.44813 28.6225
CA -17.8407 10.2543 78.7709
CA -23.8611 6.3108 35.65
CA -43.7369 -0.638007 59.0205
CA 28.235 -14.2793 57.0849
CA 13.6622 15.015 72.0837
CA -12.6026 30.4546 78.6882
CA -4.20332 -8.64981 63.1243
CA 16.6225 23.3246 41.3247
CA 2.32957 -2.4245 47.8996
CA -14.2821 28.5735 63.9768
CA -33.1226 -5.13613 62.0981
CA 18.4669 3.52872 21.1756
CA -32.7355 -10.5611 52.9252
CA -9.57113 8.91913 10.2234
CA 1.93271 22.1318 62.2705
CA -25.8979 4.2127 50.5053
CA -28 -3.41774 52.0211
CA -10.5024 -34.0086 68.2074
CA 20.605 19.1025 22.3695
CA 4.70273 -4.82002 50.5095
CA -11.2135 -29.4006 38.7745
CA -24.8973 13.6424 31.2892
CA 5.54448 -14.0036 51.2121
CA 3.9625 -0.85894 51.4636
CA -26.6169 -21.5576 35.5696
CA -4.41299 -9.16567 82.6369
CA 23.8108 10.9419 24.5747
CA 1.27921 2.99138 36.4904
CA 2.54688 4.95929 41.4509
CA 9.5149 -3.00834 48.8768
CA -31.6625 -11.5213 40.3218
CA -21.5829 4.11089 46.2989
CA 8.24925 -13.9981 52.378
CA 25.0388 21.1929 49.9356
CA -8.38174 -13.1745 38.1726
CA -18.5902 15.7537 44.2589
CA -20.0286 26.4696 57.312
CA -18.7286 29.1488 34.482
CA 8.33585 26.68 44.6224
CA 16.078 8.41097 68.2328
CA 4.84106 -3.65628 29.1945
CA -16.7341 28.0574 37.1487
CA -21.9904 7.74502 60.5862
CA 2.86647 16.7565 76.8135
CA 11.3688 35.3705 42.4138
CA -10.6864 -4.97029 57.8419
CA 5.31549 -4.65966 44.1485
CA -27.502 11.0243 32.0282
CA -2.32419 23.8876 16.3046
CA 34.8558 -2.43569 39.1076
CA -0.77487 2.53499 46.1928
CA 24.8906 -9.80034 47.174
CA 8.15005 17.8382 17.4348
CA 1.69936 -9.59969 48.27
CA -1.45718 -10.7621 51.169
CA -31.0184 -12.9207 65.4228
CA -8.09507 13.1517 31.7783
CA -17.7257 -3.68054 14.2012
CA 20.331 16.7477 75.1472
CA 12.4423 4.97655 24.8282
CA -38.4089 2.60296 53.491
CA -14.4132 1.2381 24.173
CA -17.2472 21.2579 22.3736
CA 28.3244 -12.6503 59.7209
CA 34.2555 11.8297 52.2441
CA -4.17174 -27.6163 50.9636
CA 20.0664 -23.5275 71.1135
CA -1.37402 -4.90405 52.1984
CA 21.8333 18.6019 76.9755
CA -30.1046 -25.0119 60.8305
CA -3.43667 -15.1202 27.6005
CA -33.383 -8.8882 55.764
CA -8.23632 -2.92232 71.9687
CA 23.2674 -5.61169 37.6732
CA 3.49253 -10.5186 56.688
CA -15.0952 -0.837399 26.8096
CA 2.16476 -21.5092 49.7476
CA -5.90687 -0.646043 25.6652
CA 4.80876 20.9027 81.8969
CA 29.7516 -11.0735 35.3015
CA -9.86012 -25.5325 67.211
CA -31.0579 12.4248 50.2451
CA 12.9888 -19.9677 51.7832
CA -21.4948 -33.4929 34.3246
CA -34.5876 -4.63879 54.493
CA -2.82659 13.0242 37.7405
CA -17.481 -17.5532 33.7293
CA -4.67374 31.5598 68.8363
CA -0.791704 -9.73209 88.6385
CA -8.17409 12.9318 23.7733
CA -17.4291 0.391606 32.4621
CA 23.5704 -11.694 32.9116
CA -31.9554 -6.98318 57.2358
CA -22.2061 3.95404 51.0329
CA -26.5349 10.4435 62.6177
CA -1.80107 -7.45129 54.9658
CA -30.0631 3.8244 35.2864
CA -18.8232 7.88383 84.5373
CA -33.7937 -16.8113 36.1605
CA -28.286 9.07107 48.2593
CA -34.4355 -1.59269 52.7611
CA -10.3259 8.5756 60.7845
CA 19.9423 -15.2754 44.024
CA 26.3073 8.57106 65.8333
CA -29.3316 4.22095 58.8093
CA 12.5236 2.1795 71.7286
CA 2.86274 -12.9641 45.6798
CA -31.5692 0.0520715 58.5162
CA 23.7688 -14.8347 24.4843
CA -9.3298 0.386127 27.6124
CA -39.2485 0.416658 59.1656
CA -1.24151 -5.57393 54.2429
CA 3.61384 -18.9841 55.6633
CA -7.73024 -6.14198 15.8956
CA 28.9539 -12.2041 55.8592
CA -22.1582 6.91389 34.7617
CA -1.37125 -6.54967 49.6755
CA -0.433487 4.80042 46.6866
CA 5.05989 -15.3046 45.3232
CA -28.0393 -0.609957 57.1292
CA -19.281 -33.6682 34.8789
CA 26.4088 -5.5075 42.7447
CA 9.39243 -0.904577 48.0957
CA 11.114 23.7189 44.0444
CA -15.6667 -29.5218 37.0539
CA 18.1695 -33.1079 46.0193
CA 24.4646 -8.59857 31.5133
CA -16.6044 17.8635 21.3477
CA -33.443 4.24068 43.0847
CA -13.8259 15.7092 16.409
CA -28.4784 11.2728 46.3217
CA -17.931 -4.80592 16.3551
CA 22.4062 -3.11056 35.7393
CA 14.3153 19.3734 16.3947
CA -21.0582 -0.608545 44.1054
CA -4.03711 -4.34535 58.5125
CA 10.8003 1.40413 49.2548
CA 8.05077 -4.33881 47.9947
CA -15.8049 -24.021 28.7789
CA 27.0248 -14.1053 35.1248
CA 6.88856 18.9279 18.2644
CA -17.7296 17.801 30.6322
CA -16.9973 20.7451 19.7031
CA -26.5416 7.2912 72.2514
CA -31.2938 -40.1759 43.0966
CA -18.686 5.39283 34.9854
CA -21.311 7.38025 62.9482
CA -32.5029 -1.72726 51.8393
CA 25.3985 -19.1695 54.4843
CA 7.229 -22.2668 51.1563
CA -5.33418 9.70915 21.5235
CA 7.29844 -19.3199 49.1331
CA 38.4437 -8.70272 65.1752
CA 23.5434 -20.5639 78.1577
CA -2.6833 -9.11727 55.1194
CA -6.86517 19.0692 18.3557
CA 24.1756 20.7647 59.2213
CA 19.0775 -2.07882 56.1155
CA -27.7908 4.3381 37.0835
CA -19.6185 28.7859 32.2125
CA -4.51727 -4.71927 72.6363
CA -6.75264 28.394 68.474
CA 12.0085 -12.384 72.7169
CA -14.4981 9.69185 60.9212
CA -24.9136 2.41921 54.3462
CA -0.241522 20.745 70.435
CA -30.1387 3.58374 55.2283
CA -29.5213 -4.01711 54.501
CA -4.72319 5.31745 27.3957
CA 15.0104 31.6125 43.7131
CA -15.6061 27.5274 63.0836
CA -23.5437 2.30888 62.3991
CA 24.7343 7.73577 26.391
CA 6.43943 -12.4901 48.274
CA 23.7275 -22.7968 71.7837
CA -10.9856 -17.6059 27.5711
CA -26.1257 12.8231 44.6702
CA 1.48179 10.2092 65.9243
CA -1.13955 1.13175 48.1322
CA -16.1708 31.8096 64.79
CA -23.1428 -1.71247 68.5856
CA -8.24234 16.3632 43.594
CA 18.6266 16.9546 45.2926
CA -31.9062 -3.6744 61.8982
CA -29.8308 -9.03847 48.6431
CA -15.9583 -8.75726 14.4
CA -23.1638 5.09594 49.8744
CA -11.0235 20.6154 45.4755
CA -29.0057 -8.92656 43.2224
CA 21.412 6.05667 23.6647
CA -9.17883 -5.85663 70.292
CA 1.82785 -13.0046 58.7616
CA 17.7605 20.0492 57.5495
CA 19.7328 32.1336 43.4715
CA -11.9127 -19.143 76.9913
CA 11.6389 -19.9633 60.7237
CA -0.919884 -19.1514 43.7916
CA 21.4843 -22.5436 73.6054
CA -4.57917 2.73842 34.7924
CA -40.1472 2.9725 59.1805
CA 10.8497 31.3449 63.5067
CA -34.9663 5.5591 34.3967
CA 26.4338 12.4505 25.8349
CA -2.82836 -4.51245 56.1077
CA -12.815 -24.4964 36.9487
CA -7.56722 -21.8274 42.4808
CA -19.7398 9.3967 40.3229
CA -20.051 -29.9229 45.8774
CA -32.5049 9.30458 49.4348
CA -32.5402 5.16978 47.4298
CA -14.737 16.6491 18.3761
CA -13.3207 1.79714 26.701
CA -9.26222 -10.5023 59.5375
CA -34.7854 1.73285 54.0046
CA 31.9924 -8.40386 73.8854
CA -0.0561764 -7.04718 53.9318
CA -35.4901 5.19032 58.7724
CA -8.09996 24.0418 40.3436
CA -16.1476 -5.71143 30.3929
CA -21.7249 11.6919 41.2284
CA 22.8586 -20.0001 73.6091
CA -8.02932 8.415 27.7393
CA 5.52617 21.728 71.0179
CA -32.9187 0.692631 40.0108
CA -13.0182 21.3094 49.2137
CA 23.1617 -1.49301 76.9568
CA -6.9459 16.472 41.0393
CA -20.7949 -34.6182 35.6712
CA -5.67122 -16.4597 68.5275
CA 1.0122 2.62943 45.3631
CA -15.2128 -1.8722 23.9569
CA -21.3743 5.29035 52.4024
CA 26.0787 -15.3378 27.2711
CA -22.0401 0.578965 48.1642
CA 7.805 -12.0419 44.2121
CA -8.83574 -30.8149 41.4455
CA -29.1418 3.6653 56.8173
CA 4.84292 -10.8786 83.0083
CA -16.4592 10.9726 65.9812
CA -20.2893 23.5036 24.0988
CA -7.26573 -15.4428 37.5717
CA -11.1814 7.32044 12.1355
CA -17.7989 36.1392 45.1953
CA 13.9854 26.2926 27.8814
CA -29.5428 1.63727 71.2989
CA -18.7469 7.66261 31.6255
CA -10.0782 -4.50163 77.5331
CA 31.5721 -7.0874 52.0391
CA 23.1561 -6.04667 34.1759
CA 1.71484 21.3759 33.9401
CA -20.3011 -9.25715 46.7915
CA 12.9169 -7.63713 72.286
CA 15.5953 14.8985 73.0974
CA -17.92 9.73968 49.6121
CA -35.3196 4.54458 45.6362
CA -2.23852 -3.00278 51.8575
CA -36.7029 -18.8472 35.1524
CA -21.4954 -36.1576 34.1225
CA -36.7608 1.08109 59.8194
CA -5.36489 -7.67005 19.4855
CA 22.9915 18.9508 75.4906
CA -30.9675 8.40509 34.4008
CA 28.2953 -7.86115 30.248
CA -6.74467 2.39775 29.0056
CA -13.6734 -6.92676 29.0467
CA 1.20877 -4.25088 45.4107
CA 13.0812 25.4802 36.1631
CA 0.275249 -1.8645 52.0832
CA 11.3065 11.6658 21.2687
CA -24.8241 -18.9469 36.1691
CA -22.7267 7.30435 67.5104
CA 23.1894 9.87859 29.311
CA 16.8949 32.657 36.6186
CA 14.964 19.3909 18.1333
CA 12.5801 34.076 36.1039
CA 5.33957 -13.8449 84.2738
CA -33.7482 -9.72377 59.2148
CA 21.5216 11.8 23.5567
CA 14.9164 15.963 62.6536
CA -1.03214 4.2398 38.3654
CA 9.84283 4.70275 22.1927
CA 18.7166 -28.7857 59.6279
CA -17.4959 34.44 46.0879
CA 5.82136 18.2691 32.3574
CA -37.9729 -16.5722 38.0087
CA -7.40938 -6.66494 22.0751
CA -11.8185 -3.7092 30.4219
CA 35.5276 -7.67358 40.1504
CA -22.857 2.53686 47.0345
CA 17.9575 21.7706 22.5093
CA -11.7204 -25.4506 75.5732
CA -33.789 -13.8053 39.5162
CA -2.72667 -3.55665 70.9087
CA -31.3059 -10.8675 69.2458
CA -10.9644 -6.80075 77.0609
CA 16.7711 4.72654 24.6522
CA 10.0361 -14.227 73.4345
CA -8.97188 -16.0655 37.5998
CA -8.01761 8.18734 12.7276
CA 19.378 6.32406 18.4536
CA 17.5026 4.13533 78.4369
CA 21.747 20.3549 57.7669
CA 8.24026 30.0468 42.5595
CA -9.8816 -7.25921 56.2555
CA -20.2094 19.8007 40.2537
CA -28.2098 -3.78066 60.0369
CA -2.80538 14.9136 19.8137
CA 20.7082 8.03549 67.0537
CA 4.66049 -12.7706 82.6846
CA -7.92727 -33.5899 65.08
CA 10.0897 -22.1763 52.6564
CA -24.3039 1.91585 56.9109
CA 21.787 13.3125 32.4167
