489

CA -36.1569 -7.61745 61.3713
CA -15.5667 19.1524 53.8637
CA -3.45099 -5.93491 87.8787
CA 3.31516 -2.92867 28.5067
CA -12.7292 4.19867 40.7762
CA -37.4477 -2.31657 57.0995
CA -5.48299 5.28311 26.2224
CA -0.769896 -13.9785 72.8606
CA -24.4636 15.4922 62.5118
CA -19.0665 5.60639 50.5831
CA 1.81441 -10.0579 68.0493
CA -11.2617 12.7155 59.8496
CA -11.8619 -4.11762 27.7433
CA -44.4686 3.62257 37.8118
CA -15.7739 7.91934 39.1804
CA -8.85204 -13.9437 55.274
CA -22.9032 15.5738 45.8647
CA -18.9472 17.5767 29.2431
CA -39.594 -17.1272 58.9207
CA -29.5346 10.5658 46.4733
CA -28.4658 14.3548 53.2095
CA 3.45687 26.7273 40.3767
CA 31.0151 6.50677 61.054
CA -12.8153 -5.19568 49.2612
CA -27.9103 7.71534 58.2087
CA -14.5777 26.8455 17.2173
CA -24.9244 16.3143 64.7403
CA -6.65239 10.6128 32.4442
CA -41.5747 -21.3719 56.4343
CA -15.3072 9.55129 37.8918
CA -10.7936 6.22961 58.7223
CA -26.1123 13.4173 69.2188
CA -40.2599 4.35134 46.0465
CA -40.1538 -1.62395 67.7281
CA -27.6729 9.43572 33.2054
CA -12.0211 3.12778 58.9737
CA -13.0136 -5.71036 80.9431
CA -0.733967 -3.12771 75.2449
CA -33.3929 -9.5442 60.0497
CA 5.42137 0.150393 35.1667
CA 31.7735 -5.64738 49.953
CA -23.5479 8.31724 36.1306
CA 32.2118 -1.28011 58.529
CA -24.5167 12.4863 61.8683
CA -25.8655 8.75963 33.9391
CA -12.4801 -4.86471 65.8541
CA 0.678334 -13.6089 64.8216
CA -20.3123 21.2102 68.4556
CA -12.9045 18.1842 12.3963
CA -16.9955 -4.06031 27.2139
CA -26.8439 4.98909 58.6411
CA -14.4703 1.32358 27.289
CA -31.403 18.1473 68.3325
CA -43.6574 4.89042 53.3559
CA -13.475 6.59272 42.2896
CA -12.7835 17.2554 21.0104
CA -13.5877 0.996149 39.4297
CA -7.80791 11.0912 18.7393
CA -22.1893 25.732 17.3805
CA -26.7104 -4.0604 55.4314
CA -17.6797 -10.4721 71.7512
CA -13.6786 32.5843 45.89
CA -33.0469 16.544 54.8433
CA -20.9025 30.3016 21.5562
CA -33.3178 -9.21375 61.9897
CA -32.173 10.569 47.2156
CA -0.86239 -1.64008 69.1993
CA -14.1889 1.66558 58.4914
CA -11.0809 16.583 15.3117
CA -4.0922 2.47374 24.9
CA -36.2704 -4.21893 56.5974
CA -17.3206 14.6489 70.7251
CA -22.8179 7.0932 40.5115
CA -40.5564 -6.59676 57.9944
CA -34.006 20.9374 52.2321
CA -28.2082 -10.1642 53.6463
CA -11.4814 7.99257 31.4565
CA 34.0357 -2.1632 56.488
CA -33.5341 -0.937536 54.0989
CA -34.5435 21.8623 49.0478
CA -22.6321 0.852472 71.3702
CA -17.0157 27.3371 18.4055
CA -17.0054 10.3336 48.2799
CA -25.6958 16.1416 22.7366
CA -34.3681 -7.40091 67.6101
CA -40.195 -3.98751 53.878
CA -28.7241 3.63741 59.1308
CA -24.8247 3.7861 66.0408
CA -44.0201 -4.06919 51.843
CA -1.26144 -16.173 53.6845
CA -9.23277 -11.9546 13.3961
CA -22.6882 5.62991 69.6943
CA -15.3573 -2.31345 28.0653
CA -29.535 19.687 64.4652
CA -6.7417 -20.0738 14.521
CA -18.05 11.7206 62.9914
CA -47.5242 0.0512061 48.2889
CA -15.4548 13.0609 56.5187
CA -29.4222 -12.2164 52.0415
CA -17.9214 7.40511 35.5177
CA -11.9816 -7.6253 64.0355
CA -32.794 17.5358 65.5331
CA -17.2382 9.36759 60.2479
CA -23.9998 9.52671 38.2093
CA -30.7912 -15.2165 50.7936
CA -7.04092 -4.71173 82.4297
CA -41.3122 -2.60146 55.3863
CA -29.4123 16.8094 48.1446
CA -13.7134 -0.365381 35.8065
CA -20.7372 17.3244 20.3909
CA -29.3109 25.1198 70.394
CA 10.796 17.6946 38.6265
CA -41.6416 -18.5878 58.2256
CA -41.9954 0.984353 53.1692
CA -17.3166 -4.72475 62.3475
CA -1.37221 -18.6688 51.7503
CA -28.6625 10.9342 62.7358
CA -5.78735 5.45758 74.5031
CA -18.5357 14.1951 27.7147
CA -5.12128 -2.12261 69.7793
CA 0.510027 -20.8097 57.5188
CA -8.03049 -23.5781 9.26924
CA -30.8779 13.0556 53.5293
CA -19.5253 29.3889 24.4959
CA -29.7751 6.7922 60.2322
CA -1.89747 -12.1945 60.1704
CA -30.7233 10.6951 42.6332
CA -10.4904 19.486 14.8356
CA -4.1714 9.53171 33.3876
CA -22.1149 15.9318 65.7485
CA -9.85514 14.5281 60.1291
CA -19.9493 22.1146 18.3039
CA -28.529 20.549 45.8134
CA -23.7326 13.158 68.7899
CA -14.8184 -4.15467 60.921
CA -26.5346 16.7301 46.0928
CA -17.7726 -4.66157 55.3691
CA -25.5989 14.8344 47.999
CA -34.5106 -2.03185 55.2287
CA -11.6437 -18.927 57.5495
CA -14.8374 9.96135 48.0167
CA -26.723 21.3213 56.6579
CA -16.0956 -2.53941 39.3146
CA -28.4838 6.64181 64.8735
CA -25.8945 18.4159 49.0413
CA -13.5402 18.6334 27.505
CA -14.8683 25.8163 14.9071
CA -7.45137 6.26083 72.0242
CA -16.6093 11.2477 22.3207
CA -12.463 0.35028 34.5385
CA 4.48943 -10.7348 54.5017
CA -32.5448 -5.75367 57.7745
CA -36.1219 -10.6908 57.7727
CA -14.6304 21.4079 31.5796
CA -2.6908 -9.67878 59.0827
CA -19.2136 9.74306 62.2891
CA -9.82832 9.0086 35.7061
CA -2.33921 -18.8371 61.6537
CA -6.41274 -2.65249 78.3572
CA -2.74035 -21.0669 52.2023
CA -29.0412 16.3977 69.3599
CA -9.8155 5.84368 28.0432
CA -30.3475 12.6174 66.5331
CA -7.10619 17.204 16.4204
CA -10.244 -8.98886 16.8337
CA -40.7645 -8.18684 54.5154
CA -22.7702 8.58458 58.2466
CA -10.632 8.93734 65.2214
CA -4.94128 -4.76156 86.04
CA -3.65555 -20.3675 18.9486
CA -42.9423 5.01106 50.0689
CA -48.007 0.391846 36.6964
CA -14.6658 5.70338 30.1826
CA -15.157 -0.718531 31.1069
CA 15.8127 -8.78095 53.2961
CA -15.8886 9.7069 64.0123
CA -43.6706 -2.93913 48.9058
CA -24.7416 -4.04278 66.5424
CA -28.6756 17.5972 49.7567
CA -25.3563 -0.589337 57.0023
CA -17.4186 16.5821 31.5918
CA -13.1452 18.4025 16.7452
CA -28.5554 10.3359 72.2583
CA -3.95419 -16.8616 74.8825
CA -2.04803 -7.3881 62.4514
CA 9.75126 16.6784 36.6991
CA -14.7254 17.444 50.1958
CA -31.2518 6.24284 69.9127
CA -5.5848 2.07685 76.9709
CA -33.3425 0.0947558 63.1605
CA -31.2737 14.8949 66.5707
CA -12.0911 28.4213 42.9866
CA -15.1042 15.5272 44.9661
CA -2.1892 4.559 24.4147
CA -14.6997 -5.81478 71.3427
CA 1.9443 -10.5588 58.217
CA -12.8614 25.5439 46.4172
CA -39.2581 2.92726 47.4953
CA -8.55528 19.8501 15.4726
CA -3.52254 -4.00307 62.0475
CA 11.5592 -11.1456 54.228
CA -27.6238 9.42975 46.4304
CA -13.8653 11.0954 31.8882
CA -11.909 21.1195 32.7837
CA -8.78937 -3.91564 84.4936
CA -12.5309 -8.71824 55.6601
CA -24.2987 10.9306 68.2612
CA -26.174 -8.06521 67.6215
CA -31.9782 13.8005 57.318
CA -25.0113 3.68654 69.1267
CA -13.6257 2.56893 59.9915
CA -14.2384 16.7043 48.5341
CA 12.2147 -12.8521 52.642
CA -21.7673 7.08706 57.3245
CA -1.67078 -11.8944 18.8931
CA 12.3213 -15.173 52.1952
CA -4.32453 -18.0229 49.2681
CA -34.4731 14.2836 47.4906
CA 0.373443 -3.53792 58.5993
CA -28.8105 -5.56048 50.0707
CA -9.27764 24.6241 25.5442
CA -4.63929 -16.9074 16.2503
CA -16.4456 11.0154 38.2708
CA -28.382 -1.01916 64.827
CA -32.2384 14.6534 46.2908
CA -10.0487 -2.08587 58.6994
CA -13.6765 -1.93255 34.1817
CA -17.312 14.4432 21.2966
CA -19.6541 13.0439 67.5437
CA -29.5595 14.1643 64.2487
CA -17.8454 32.8802 14.8397
CA -8.65999 -2.72014 68.7414
CA -8.94458 -1.97036 29.7155
CA -24.7484 15.4612 66.8128
CA -18.5825 27.3952 15.1032
CA -8.12028 -16.8009 56.5609
CA -10.2368 10.319 31.5064
CA 1.01709 -18.172 18.1964
CA -17.2016 14.5813 67.0588
CA -17.8326 10.6883 46.0058
CA -14.8111 10.3994 33.2579
CA -15.6334 24.1866 19.0583
CA -2.92594 -13.1198 55.5592
CA -9.03276 -5.35194 63.2028
CA -16.0197 -10.2863 54.5136
CA 1.82407 10.7804 19.9321
CA -31.288 15.8261 61.3661
CA -36.9642 -11.8675 61.7236
CA -1.82397 -17.553 18.9909
CA 8.10482 18.3345 39.554
CA -14.0312 19.0016 19.3323
CA -24.6745 14.5324 64.1974
CA -31.6462 -14.632 61.2111
CA -15.858 12.3065 58.8855
CA -43.5598 -17.3458 57.293
CA -7.05962 4.51709 67.5329
CA -13.56 12.3267 59.6734
CA -2.30032 -8.91829 63.7971
CA 8.13395 -9.54452 51.1556
CA -25.5126 6.52571 56.2622
CA -10.3975 9.15166 10.757
CA -31.0725 3.14247 59.087
CA -6.54983 2.79197 26.1739
CA -21.7875 14.356 48.229
CA -18.3854 3.72734 57.8361
CA -14.2206 -5.54017 64.7014
CA 0.0734342 -11.6117 61.8696
CA -13.066 -0.6298 31.5481
CA -20.4395 27.9818 18.058
CA -23.2836 15.5257 58.8806
CA -6.71257 19.2995 47.7094
CA -17.8672 15.7853 56.3648
CA -1.04293 -10.8953 66.6468
CA -15.2172 -5.85156 52.8344
CA -7.84544 9.92958 61.6604
CA -29.1554 10.0657 66.385
CA -24.7355 8.89011 70.0979
CA -43.9847 -10.5025 43.969
CA -16.1043 16.186 22.3834
CA -12.1687 -4.82332 63.2599
CA -18.3533 3.56104 39.1903
CA -8.19422 -8.79201 82.8745
CA -13.9295 -10.7122 71.9256
CA 12.0002 -8.27194 51.6296
CA -2.0215 -7.84741 54.9244
CA -44.9185 -20.9394 55.5102
CA 8.53554 -13.5375 50.6567
CA -12.7263 12.2859 14.6639
CA -15.6716 16.5282 27.1685
CA -14.0753 8.06009 10.38
CA -38.8702 -0.546456 41.2434
CA -13.1245 0.14034 28.4776
CA -27.4931 -1.36814 56.698
CA -12.2748 13.8149 21.4918
CA -12.1879 9.49509 35.4454
CA -14.7145 9.37431 26.9548
CA -1.01952 -2.83719 70.9429
CA -28.8936 8.41673 64.4427
CA -8.51025 7.99997 31.9259
CA -6.16982 -6.43143 84.2484
CA -10.971 -4.4356 31.6125
CA -4.26851 -13.3395 14.7881
CA -43.8947 0.814221 49.5633
CA -14.4835 1.38149 35.1794
CA -31.541 17.7598 57.1411
CA -15.1182 8.52468 32.9947
CA -4.26894 -6.22136 64.9636
CA -15.5241 8.78575 62.0492
CA -26.1631 2.45733 53.468
CA -27.7006 22.0548 67.1475
CA -24.53 1.28146 52.7606
CA -25.4625 16.1289 55.7748
CA -44.0225 -5.51782 47.5348
CA -31.3612 -1.00401 59.6016
CA -24.5634 15.5477 43.2538
CA -15.7395 4.21644 58.7261
CA -20.4476 4.77695 37.8435
CA -7.34913 -2.6152 28.7425
CA -21.413 10.2627 66.6391
CA -24.3801 6.79628 35.2627
CA 17.0287 0.156346 47.9866
CA -11.4867 6.77937 35.4009
CA -15.5035 7.03636 37.3543
CA -11.0673 -2.20202 68.6294
CA -1.69151 2.08391 27.2085
CA -39.9046 -1.51568 46.8659
CA -11.7481 11.988 11.892
CA -27.9933 -11.3086 50.3939
CA -21.1044 8.37894 49.059
CA -28.1254 13.1392 59.584
CA -20.0795 9.75417 70.7829
CA -17.5544 29.166 15.3344
CA 12.8115 -10.55 56.871
CA 2.2913 -15.4101 53.2242
CA -27.5872 14.3137 47.4096
CA -21.5656 10.156 72.9802
CA -12.1528 8.56755 56.9704
CA -41.9591 1.43255 48.1915
CA -23.4777 -0.0427816 57.1586
CA -15.2868 2.01747 49.435
CA -12.4075 11.2156 18.0162
CA -15.2237 -4.33982 55.5481
CA -14.3479 -11.0128 52.3868
CA -42.0402 3.52289 37.9518
CA -22.3153 10.1219 47.5685
CA -12.8215 -11.4941 53.8737
CA -29.8747 -6.95515 41.3014
CA -38.2608 -3.62099 64.1237
CA -27.0143 17.8683 23.5573
CA -15.6923 19.748 31.9343
CA -21.3902 15.612 58.4781
CA -41.3735 -5.1627 49.5558
CA -2.60888 -1.44344 68.7358
CA -9.2555 18.1161 24.8072
CA -20.3605 6.47739 61.8168
CA -22.3767 17.4995 25.4061
CA 30.0677 7.80699 60.1203
CA -10.2507 11.9036 29.5124
CA -12.6175 -5.15863 75.7065
CA -21.0612 6.5378 50.0737
CA -39.823 1.25381 43.3862
CA -20.0414 6.72015 32.8062
CA -14.3723 20.1324 46.7997
CA -1.53188 -14.6727 60.893
CA -43.3353 -7.42943 47.2458
CA -12.176 19.1491 58.7851
CA -32.6148 12.8331 41.8045
CA -17.7645 -6.70112 51.7738
CA -19.001 14.018 64.9463
CA 34.8716 -1.9498 40.4641
CA -13.9045 8.0972 45.0855
CA -23.8558 9.99291 74.1266
CA -15.8958 17.8927 48.5122
CA -1.17124 -11.2463 69.4056
CA -26.9325 0.616877 66.6457
CA -44.5063 -3.72446 55.2372
CA -39.652 -1.60161 55.1935
CA -9.80391 -0.0749642 30.9678
CA -31.6146 13.1053 44.4074
CA -17.6223 0.790197 46.5087
CA -8.80286 4.28603 29.3613
CA -35.9741 -0.966169 58.9692
CA -37.5521 -0.216531 59.5356
CA 17.1709 -0.0964198 51.6693
CA -26.7756 3.8661 55.9805
CA -36.9124 21.3058 49.6127
CA -40.164 -24.0042 56.3271
CA 2.18652 -15.5805 49.5992
CA 6.17787 5.45673 35.6018
CA -24.4511 11.8631 47.0115
CA 18.8928 -7.50185 38.5698
CA 32.7475 -0.0776992 57.2397
CA 12.9909 -10.9887 52.9799
CA -21.3121 7.45803 52.4723
CA -7.46257 7.45197 18.2711
CA -15.0484 14.7224 63.8992
CA -42.8329 2.0942 46.2995
CA -25.0219 20.2277 64.0282
CA -24.9796 11.3823 70.4567
CA 13.4829 -9.95915 55.1768
CA 17.4645 27.3332 36.5058
CA -28.9937 10.7425 43.4203
CA -17.8963 1.01311 38.5799
CA -24.5499 14.3681 55.8653
CA -12.8411 11.7212 35.1411
CA -9.76207 -7.28923 63.8604
CA -11.2836 14.9227 55.3175
CA -24.026 23.1781 67.6616
CA -26.4195 9.422 64.8625
CA -33.5723 -5.38851 68.7609
CA -28.9368 7.3728 71.0366
CA -11.0821 12.71 18.1253
CA -18.101 11.826 72.9925
CA -10.0619 12.7026 9.17792
CA -23.8419 13.7967 60.0735
CA -0.983449 -5.82824 59.4989
CA -28.7173 -9.76811 43.3906
CA -41.1395 -1.96566 34.5769
CA 16.7431 -10.2348 57.2246
CA 0.260811 -13.7237 53.7851
CA -29.088 1.66788 52.9822
CA -29.9237 12.1746 51.2134
CA -15.7518 1.11046 59.4938
CA -29.1871 17.0025 24.4288
CA -35.5848 1.71634 55.586
CA -21.7546 6.01508 48.0063
CA -8.73347 1.61383 22.536
CA -20.0718 14.1889 43.7128
CA -35.5864 -6.34161 53.0548
CA -13.0871 29.388 46.3168
CA -29.304 -0.0276027 57.6007
CA -44.124 -0.635254 44.7776
CA -26.217 15.2092 71.8678
CA -9.50335 9.05722 70.1491
CA -37.1549 1.52252 64.1268
CA -11.9016 0.191291 61.2019
CA -30.628 12.3007 70.282
CA -24.51 14.6448 44.9277
CA -44.5173 -1.4857 32.6715
CA -11.0525 7.70934 13.8438
CA -15.3339 1.85679 38.6617
CA -35.4055 -4.30364 59.3944
CA -21.1474 1.69016 40.4737
CA -29.5043 10.481 59.1906
CA -11.1267 -7.70199 67.3748
CA -17.703 29.4422 17.4853
CA -20.6937 6.99572 63.8268
CA -14.235 8.10767 12.4061
CA -26.9609 -9.33964 40.9369
CA -10.0067 -13.8889 58.8051
CA -22.5282 -6.15131 68.6325
CA -43.5193 0.146751 47.3229
CA -39.7655 3.77155 38.7505
CA -10.3562 -1.52975 74.416
CA -27.5814 9.94614 48.6178
CA -37.5308 -15.087 59.7118
CA -15.5349 32.3129 19.1306
CA -37.2038 3.78534 41.6254
CA 15.2608 24.7843 37.799
CA -14.0304 14.2725 14.4264
CA -22.175 6.72135 72.4683
CA -14.5793 16.3362 61.7054
CA -11.8144 -2.38224 33.166
CA -13.6823 16.7141 64.6731
CA -0.208005 -15.8953 17.2366
CA -27.3549 16.7471 68.5995
CA -9.50576 13.8604 18.7132
CA -43.4689 -18.7331 59.8672
CA -44.5635 -2.81536 36.2809
CA -22.4327 -6.86405 54.1558
CA -9.03347 22.774 27.7503
CA 11.6617 -9.0964 54.4416
CA -11.4804 31.5314 45.8096
CA 4.87246 -1.42411 28.9018
CA -23.105 8.92512 55.0198
CA -31.396 18.0653 63.8245
CA -14.2723 -7.40157 55.6531
CA -28.6751 4.65533 61.4676
CA -9.19938 22.2814 24.3918
CA -9.28531 17.9388 17.854
CA -2.50056 -11.3267 53.9034
CA -26.1014 4.45783 54.3639
CA -27.1133 9.10179 39.2658
CA -15.7448 8.63019 44.0048
CA 13.2181 -6.87754 53.1527
CA -8.77122 -20.393 18.3657
CA 14.8744 -11.5875 54.3439
CA -9.61188 8.82325 15.6084
CA -11.2608 6.1715 66.6296
