489

CA -12.1728 23.3777 46.5948
CA -5.00323 -5.60525 29.0855
CA -39.2558 1.13161 54.02
CA -17.1318 5.17664 55.5761
CA -11.3467 15.3083 35.6501
CA -27.4036 10.672 49.0746
CA -5.48299 5.28311 26.2224
CA -21.7967 5.09301 49.2533
CA -42.0141 -1.51419 47.1404
CA -19.0665 5.60639 50.5831
CA -42.3526 3.78943 44.199
CA -18.7863 -5.58346 55.3252
CA -11.8619 -4.11762 27.7433
CA -14.4958 -0.0688809 53.6341
CA -14.8064 -0.304359 48.6332
CA -3.38656 -3.35497 20.04
CA -44.6978 -13.0982 48.9499
CA -31.1667 -6.91998 71.0576
CA -39.594 -17.1272 58.9207
CA -18.0283 31.4481 19.2205
CA -28.4658 14.3548 53.2095
CA -43.0612 0.580336 43.6499
CA -8.78736 -18.2683 14.6509
CA -47.0514 -4.94057 46.7592
CA 4.50138 -17.5337 52.6883
CA -14.105 14.4685 67.0913
CA -27.3493 13.9698 70.2063
CA -50.3233 -1.58869 50.3369
CA -4.04868 0.444745 71.4807
CA 21.7528 -19.3059 57.6209
CA -39.1566 7.49114 59.2095
CA 23.2861 -16.1727 59.7154
CA -11.9468 12.0137 23.8553
CA -29.4227 -10.3307 57.1026
CA -7.60498 19.6645 11.4193
CA -12.0211 3.12778 58.9737
CA -13.0136 -5.71036 80.9431
CA -20.428 10.7362 71.5765
CA -5.42176 -8.20397 88.4156
CA -21.0176 -2.28519 31.3559
CA -30.2144 8.77124 43.009
CA -23.5479 8.31724 36.1306
CA -3.02259 -13.2659 73.611
CA -10.5075 -4.51932 65.0769
CA -25.8655 8.75963 33.9391
CA -12.4801 -4.86471 65.8541
CA -20.3626 17.3182 17.7888
CA -22.6034 17.6946 66.3312
CA -16.704 23.3999 15.4981
CA -16.8566 -4.1058 66.6819
CA 14.6584 -11.2747 53.422
CA -23.3798 26.8551 72.2732
CA -31.403 18.1473 68.3325
CA -24.0523 1.32395 59.4882
CA -19.0085 13.7357 15.0245
CA -19.2094 -2.75242 29.1947
CA 2.24376 -14.6462 55.2969
CA -7.80791 11.0912 18.7393
CA 8.95251 4.34053 33.7913
CA -14.3897 -4.98446 58.8975
CA -20.9552 14.4337 72.3332
CA -13.6786 32.5843 45.89
CA 1.24711 -12.1379 55.9071
CA -21.7351 25.1496 69.4244
CA -10.406 24.3883 27.5786
CA -32.173 10.569 47.2156
CA -37.8158 19.9194 51.5611
CA -20.8039 -6.71671 57.9978
CA -23.6896 11.7458 40.5551
CA -5.62819 -4.02061 19.2334
CA -25.4153 13.7257 42.4373
CA -24.6357 5.6651 68.7804
CA -6.29873 -3.95007 67.7247
CA -40.5564 -6.59676 57.9944
CA -0.924737 -3.15011 19.539
CA -28.2082 -10.1642 53.6463
CA -25.9764 -1.44509 69.008
CA -7.3915 21.9428 15.9049
CA -33.5341 -0.937536 54.0989
CA 23.4629 -20.945 60.0874
CA -16.8728 16.9851 47.8305
CA -10.2536 3.83574 35.6408
CA -37.6525 -6.51765 60.1917
CA -14.8193 3.8424 33.2485
CA -33.4462 1.1104 61.7098
CA -28.1747 -0.872143 64.9466
CA -31.4914 19.3572 54.8741
CA -10.1393 -10.7939 85.7207
CA -44.0201 -4.06919 51.843
CA -20.6355 -4.20403 75.7899
CA -24.0415 14.8344 68.1158
CA -22.6882 5.62991 69.6943
CA 17.0354 -17.6558 58.5803
CA -4.21416 -16.1121 54.0228
CA -20.2317 -1.7618 56.967
CA -7.49692 -1.36922 76.9365
CA -6.97962 -21.6737 62.4438
CA -22.0691 21.5964 44.0258
CA -47.4436 -2.4047 48.3294
CA -17.699 12.9174 37.7742
CA -11.9816 -7.6253 64.0355
CA -32.794 17.5358 65.5331
CA 11.7639 -8.50429 57.1669
CA -36.4097 2.42082 50.5122
CA -17.8498 6.28715 19.7969
CA -12.7949 27.4817 46.1785
CA 0.606673 -8.95984 55.8523
CA -40.7186 0.983766 43.2477
CA -5.59961 9.67111 19.144
CA -38.5316 -16.5869 61.7924
CA -17.9727 4.72601 29.7163
CA -14.7259 33.9252 49.9012
CA -41.6416 -18.5878 58.2256
CA -41.9954 0.984353 53.1692
CA -41.8109 -2.66621 50.7538
CA -19.9665 -8.6918 67.7064
CA -28.6625 10.9342 62.7358
CA -10.5135 14.4182 20.9351
CA -0.53036 -1.09773 70.2961
CA -26.2719 6.35956 62.9236
CA -16.6443 13.0834 34.269
CA -17.8923 13.5556 19.7931
CA -36.3479 -10.5826 57.7496
CA -19.8008 10.6303 17.1238
CA -29.7751 6.7922 60.2322
CA -24.1066 9.82316 48.5227
CA 12.9172 -7.40592 56.2139
CA -15.5464 21.6953 20.3952
CA -17.4367 25.343 14.5243
CA -22.1149 15.9318 65.7485
CA -22.2121 12.2306 41.6999
CA -18.9364 29.5027 19.0905
CA 16.61 -18.5703 60.9105
CA -32.6871 14.2116 55.4427
CA -23.8491 16.6562 61.0091
CA -26.5346 16.7301 46.0928
CA -11.3993 10.3699 32.0949
CA -2.17141 -1.0247 22.0354
CA -18.1191 -6.48091 84.9782
CA -43.8355 -15.8086 58.5444
CA -8.9768 29.7625 46.233
CA -17.5806 -8.55188 54.0385
CA -23.4448 12.2293 68.9549
CA -21.8511 12.2858 16.955
CA -12.2514 -2.88326 78.2549
CA -20.5404 20.4103 65.1275
CA -17.5619 -5.88749 64.989
CA -7.49833 -4.64686 25.5924
CA -31.4209 21.4901 48.9746
CA -1.74028 -1.62691 66.7203
CA -47.9779 -3.55166 50.9663
CA -12.7839 -3.94807 25.4398
CA -1.20756 6.26196 23.009
CA -21.0507 5.66208 73.9546
CA -32.3881 18.4433 62.0253
CA -15.3355 -4.72929 67.5517
CA -12.7802 7.22452 30.3132
CA -2.33921 -18.8371 61.6537
CA -17.1008 3.26498 31.225
CA -22.8538 -8.09863 65.2082
CA -19.1126 1.08781 30.0418
CA -2.97639 -13.9423 17.4222
CA -8.8072 5.34514 35.3409
CA -7.10619 17.204 16.4204
CA -13.4669 16.353 69.8836
CA -2.29327 9.27705 29.7406
CA -15.2621 24.3473 13.2645
CA -14.5971 -7.84886 60.9912
CA -26.5222 10.9052 53.3417
CA -48.5148 -2.07302 50.0431
CA -42.9423 5.01106 50.0689
CA -49.1887 -5.80106 46.326
CA -26.5608 -2.48644 59.8868
CA -32.4251 0.343936 59.8212
CA -20.7765 20.1926 46.2927
CA -22.263 15.3772 48.5675
CA -2.04999 0.681474 60.9336
CA -18.9908 -6.72155 59.3794
CA -28.6756 17.5972 49.7567
CA 10.385 -10.6873 52.4075
CA -33.6004 17.0305 54.2738
CA -14.9041 13.3389 24.6081
CA -15.935 12.7996 65.2526
CA -25.6746 7.38789 74.3509
CA -12.1048 20.0522 16.8642
CA -25.695 10.6128 47.6707
CA -18.315 10.9233 38.1762
CA -18.469 33.7906 46.469
CA -34.5375 14.3491 68.519
CA -10.2455 25.5356 26.1112
CA -2.39092 -1.17517 62.1062
CA -47.8034 -5.28027 44.5269
CA -10.4464 21.1099 34.8656
CA -26.1123 4.7824 71.7931
CA -18.6757 -4.31615 75.7202
CA -28.5144 16.2796 47.6136
CA -12.8614 25.5439 46.4172
CA -39.2581 2.92726 47.4953
CA -32.8539 14.3983 59.1806
CA -3.52254 -4.00307 62.0475
CA 11.5592 -11.1456 54.228
CA -8.69982 -4.4391 78.6053
CA 11.4333 -15.9694 53.7038
CA -11.909 21.1195 32.7837
CA -42.6085 -21.6227 61.7085
CA -12.7975 7.28914 33.5052
CA -16.3276 15.2012 15.7651
CA 10.1939 -4.19727 51.0447
CA -9.81157 31.7449 47.2024
CA -38.0987 4.00667 57.4411
CA -14.1691 11.2634 12.6713
CA -14.2384 16.7043 48.5341
CA -23.506 11.2184 74.7622
CA -2.05824 1.26049 69.0469
CA -5.57218 4.6977 22.6698
CA -21.0117 5.051 70.5148
CA -13.3319 15.7022 37.1036
CA 4.49188 -14.3441 52.8453
CA -26.7325 14.5751 43.9503
CA -11.1459 -5.89795 82.1248
CA -3.54854 -0.168644 65.2867
CA -15.7513 -4.30767 64.3429
CA -16.4456 11.0154 38.2708
CA -24.907 7.48634 45.7754
CA -1.43261 -9.52621 54.0431
CA -10.0487 -2.08587 58.6994
CA -12.994 -6.53881 58.4053
CA -17.8776 13.6163 32.8153
CA -11.5908 5.08494 36.7813
CA -42.556 -6.71001 58.0019
CA -25.2947 11.8682 37.4367
CA -34.0381 12.3451 56.1076
CA -7.7307 -7.39443 27.7017
CA -31.4703 -5.89434 54.6479
CA -8.531 10.7557 25.1007
CA -26.6217 14.5237 47.3982
CA -24.794 -11.1431 40.038
CA -9.69001 2.9581 37.5676
CA -15.5176 17.7996 49.174
CA -28.2158 9.54885 30.111
CA -14.8111 10.3994 33.2579
CA -16.4434 16.8303 34.9523
CA -34.4005 -5.18036 55.9855
CA -39.6818 -2.03216 51.7937
CA -13.4184 -3.76906 56.1561
CA 9.555 -17.0185 63.9608
CA -2.68664 -11.8891 56.6529
CA -36.9642 -11.8675 61.7236
CA -32.1904 16.3564 58.0968
CA -2.28077 -0.366054 24.0926
CA -6.61226 -5.63741 70.1742
CA -25.5817 5.17943 74.7121
CA 0.859431 -11.8174 63.7074
CA -45.8782 -14.0273 54.5613
CA -2.68623 -8.3036 58.7986
CA -12.6775 10.6688 35.9829
CA -19.2686 13.073 72.2888
CA -2.72442 -14.5778 64.7152
CA 2.82657 1.02708 33.8333
CA -15.7227 18.8509 47.0835
CA -10.3975 9.15166 10.757
CA -25.2816 0.692803 70.0564
CA -10.8427 12.4498 39.5255
CA -11.238 6.54354 32.3176
CA -13.3251 3.59065 34.395
CA -29.5029 13.1753 57.2682
CA -20.0185 18.3879 46.7961
CA -36.1653 12.548 56.1839
CA -20.4395 27.9818 18.058
CA -5.97035 -1.12593 27.5313
CA -26.2692 1.1913 52.8606
CA -15.2922 4.84149 16.2543
CA -1.52756 13.4388 31.6286
CA -29.8059 -1.94666 66.1384
CA -12.859 19.2726 35.6481
CA -10.3471 -3.56047 60.0157
CA -5.01564 11.8049 31.7129
CA -43.9847 -10.5025 43.969
CA -19.4864 -7.62708 51.76
CA -20.0419 16.4399 70.8108
CA -26.3296 3.7517 50.6225
CA -29.1131 -10.466 49.1369
CA -13.9295 -10.7122 71.9256
CA -13.6249 13.1016 14.6297
CA -2.0215 -7.84741 54.9244
CA -3.38622 -20.6057 62.8599
CA 8.53554 -13.5375 50.6567
CA -8.59614 20.4023 57.9784
CA -4.11033 -5.01777 68.2215
CA -34.4426 14.2051 37.0123
CA -1.84821 0.596507 64.1976
CA -31.9567 11.7015 56.8755
CA -15.7932 2.02509 33.6747
CA -12.2748 13.8149 21.4918
CA -31.622 -7.55513 36.4694
CA -14.7145 9.37431 26.9548
CA -24.6023 15.7684 45.82
CA -26.4996 0.223405 67.5426
CA -8.51025 7.99997 31.9259
CA -6.48207 25.6606 25.2485
CA -46.1889 -1.95372 52.8352
CA -34.1954 -11.6443 58.0899
CA -11.8475 8.58918 27.2405
CA -30.7321 -6.60276 51.3286
CA -19.5372 30.2039 46.9536
CA -1.48771 -1.21568 72.4075
CA -21.5443 15.5755 21.0067
CA -17.7151 9.82626 21.769
CA -17.3708 -2.94183 64.3452
CA -41.3498 1.58702 48.6972
CA -26.1124 9.49215 43.6703
CA 10.6164 -7.39898 53.2503
CA -19.3807 19.4433 71.6814
CA -13.7643 2.00537 33.111
CA -7.2505 1.74218 67.3449
CA -15.1708 17.0974 36.4626
CA -37.5443 -19.1007 60.6043
CA -42.8552 -0.461468 54.329
CA -4.92817 21.0308 56.2771
CA -5.19415 4.53959 37.8915
CA -17.2625 -1.52032 32.9337
CA -31.8279 13.0992 60.2892
CA -10.14 18.8778 19.5252
CA -42.5442 1.30234 37.8142
CA -5.01644 -4.32197 76.7198
CA -10.9053 0.573335 30.6222
CA -11.7481 11.988 11.892
CA -17.0599 11.8656 31.7392
CA 11.6093 -4.8326 57.0705
CA -24.1247 13.5143 52.2726
CA -22.2356 15.0186 63.4956
CA 4.96826 -20.7402 56.4558
CA -20.7379 -7.85093 61.5837
CA -9.07556 0.544864 58.8996
CA 15.2203 -18.6908 56.838
CA 5.00253 -17.0409 58.6042
CA -24.1912 18.7816 42.9626
CA -17.1778 13.9236 31.1723
CA -18.1793 1.26822 52.176
CA -39.5404 -0.851521 41.8152
CA -16.9338 13.7379 68.6759
CA -15.7076 8.37464 34.4029
CA -14.3479 -11.0128 52.3868
CA -42.0402 3.52289 37.9518
CA -19.982 34.0453 23.8622
CA -30.4079 26.4938 69.4981
CA -4.4826 -8.47466 70.568
CA -30.1923 29.8648 69.4989
CA -15.8094 -2.75688 68.1839
CA -1.96703 1.19643 66.0693
CA -13.8521 29.8016 18.5523
CA -17.7508 5.42506 53.6631
CA -12.8499 11.5548 32.0783
CA -22.8482 9.2875 79.3296
CA -20.3605 6.47739 61.8168
CA -3.43775 -3.31976 58.8128
CA -25.7128 14.0586 71.2146
CA -21.0615 13.2392 35.6871
CA -16.0008 -4.7792 77.8022
CA -29.509 12.4486 45.4299
CA -23.1095 13.1182 63.0261
CA -18.4019 11.7572 19.8851
CA -28.0233 17.9093 72.0581
CA -1.53188 -14.6727 60.893
CA -25.2877 -1.04328 55.8972
CA -12.176 19.1491 58.7851
CA -4.75184 15.7778 32.1101
CA -26.3594 21.9739 75.1462
CA -30.2677 -12.1027 56.2743
CA 34.8716 -1.9498 40.4641
CA -23.4518 20.0933 66.6854
CA -10.3367 -5.75129 67.5326
CA -28.269 11.5372 42.3772
CA -17.9989 8.15537 39.0541
CA -25.1041 9.7083 36.6666
CA -44.5063 -3.72446 55.2372
CA -7.44346 19.0183 56.0918
CA -33.6191 12.4471 57.9273
CA -18.1136 -0.905398 53.8476
CA -24.2194 8.73949 44.549
CA -8.80286 4.28603 29.3613
CA 12.046 -10.287 49.4357
CA -23.8349 -3.66576 47.9895
CA -34.1684 -15.6135 59.9508
CA -13.0777 30.4421 44.7698
CA -22.8619 22.4672 63.9747
CA -21.9378 10.0612 40.4577
CA -30.827 0.285676 51.9424
CA 6.17787 5.45673 35.6018
CA -12.8613 21.9932 45.4255
CA -0.54939 -8.09542 60.892
CA -25.99 13.9665 49.9578
CA -25.3433 18.6544 65.9188
CA -25.2478 19.3141 22.8952
CA -7.46257 7.45197 18.2711
CA -10.3059 6.56104 19.2122
CA -13.318 9.81767 14.5025
CA -37.5562 -5.94783 64.4219
CA -6.14996 4.90678 36.347
CA -25.006 25.0226 71.2816
CA -33.6721 13.6332 67.0371
CA -11.8107 15.1445 63.9111
CA -24.3527 16.6617 63.3551
CA -15.7903 7.86981 14.5119
CA -7.73222 -0.500816 75.1262
CA -36.5809 0.254511 56.9502
CA -7.6327 -10.0732 58.5331
CA -24.6153 12.9248 47.4454
CA -31.0096 -7.66499 38.9182
CA -33.5723 -5.38851 68.7609
CA -36.6483 -2.515 33.0426
CA 22.0961 -19.1583 62.3324
CA -14.9984 -7.16157 66.375
CA -43.8842 -8.60946 48.8259
CA -2.96159 5.02169 39.1494
CA -41.1341 -0.325863 45.0954
CA -28.7173 -9.76811 43.3906
CA -18.6369 24.8555 16.3257
CA -6.09891 -12.5197 61.723
CA -24.9419 14.6431 53.6312
CA -22.0219 9.42274 15.9001
CA -18.3753 33.0502 48.1882
CA -32.9812 -7.96226 55.9091
CA -28.8472 17.0114 55.6447
CA -16.2523 5.66735 30.8102
CA -12.9844 26.7791 23.9597
CA 15.6483 -20.7141 54.5103
CA 0.404214 -12.106 57.7709
CA -35.5864 -6.34161 53.0548
CA -10.8829 -20.1634 21.6719
CA -39.5211 -1.37512 57.9837
CA -42.8267 1.33192 47.2505
CA -14.6474 16.7681 44.672
CA -45.272 -0.177364 54.1173
CA -20.6036 31.4367 19.5957
CA 4.74768 -12.8873 56.2501
CA -24.0038 18.5411 59.8643
CA -23.11 28.8663 72.5443
CA -18.5188 -0.00327023 34.8779
CA -36.1795 9.92002 48.2819
CA -15.3339 1.85679 38.6617
CA -17.1151 -11.6304 61.7417
CA -29.8894 -3.17795 64.586
CA -40.5688 -19.7107 62.4744
CA -20.7296 10.2429 42.4515
CA -17.703 29.4422 17.4853
CA -19.3831 -4.12252 59.3563
CA -14.235 8.10767 12.4061
CA -1.90977 -15.3357 49.9256
CA -3.85983 -5.76633 20.0955
CA -22.3363 5.86891 56.6901
CA -22.2722 11.7146 45.5532
CA -22.646 -9.08986 52.4252
CA -10.8285 15.6338 51.239
CA -23.7046 3.88821 72.1889
CA -22.8666 6.38316 59.9721
CA -29.2466 14.7263 48.9606
CA 14.1205 -15.8841 55.9626
CA -11.4731 22.9734 28.7255
CA -29.2498 -9.74345 39.0399
CA -22.175 6.72135 72.4683
CA -14.5793 16.3362 61.7054
CA -9.92568 8.88148 59.89
CA -15.2589 -12.8751 53.9587
CA -24.0936 21.8638 73.5608
CA 0.320253 -12.7932 59.9388
CA -22.6608 0.842783 55.7153
CA -12.2413 15.5959 68.5099
CA -13.6888 10.0823 25.2521
CA -25.7456 14.3459 20.9917
CA -9.03347 22.774 27.7503
CA -6.78506 -4.40793 63.3816
CA 8.68472 -18.2538 59.9378
CA -31.7781 5.2162 39.9233
CA -21.1859 9.12092 14.0018
CA -17.7498 9.54303 32.7647
CA -12.3665 -6.30267 27.9469
CA -19.6903 23.3032 65.6142
CA 11.9516 -12.4639 43.3225
CA -14.2732 -5.62719 61.4351
CA -25.1752 14.5287 65.5191
CA -26.1014 4.45783 54.3639
CA -25.788 17.3146 67.959
CA -18.4318 11.7003 23.4437
CA 13.2181 -6.87754 53.1527
CA -26.0297 15.359 67.2615
CA -10.8891 0.253533 39.0238
CA -22.6746 11.7566 66.0577
CA -18.4349 -7.80877 63.7113
