489

CA -12.1728 23.3777 46.5948
CA -34.1313 -17.647 61.076
CA -31.0844 -8.42585 54.0687
CA -34.9078 22.7621 61.0704
CA -5.47356 -7.43091 63.2443
CA 7.49522 -15.3797 51.0238
CA -5.48299 5.28311 26.2224
CA -9.8256 11.4603 20.8556
CA -47.3417 -7.54671 44.9232
CA -9.36663 -9.07951 65.2733
CA -42.3526 3.78943 44.199
CA -18.7863 -5.58346 55.3252
CA -37.4004 -14.6402 59.3808
CA -26.5572 20.6125 68.1055
CA -1.36942 -14.9176 54.7148
CA -11.3687 26.3685 26.7197
CA -44.9243 -5.69409 46.3724
CA -20.1156 15.9979 40.9483
CA -4.69101 7.67293 39.9382
CA 0.132862 -3.37319 66.3889
CA -19.4496 28.8968 69.5887
CA -43.0612 0.580336 43.6499
CA -15.8063 25.5401 36.1449
CA -47.0514 -4.94057 46.7592
CA -11.3649 1.42258 35.8418
CA -14.105 14.4685 67.0913
CA -5.57396 5.87692 14.3775
CA -50.3233 -1.58869 50.3369
CA -4.04868 0.444745 71.4807
CA 21.7528 -19.3059 57.6209
CA -39.1566 7.49114 59.2095
CA 23.2861 -16.1727 59.7154
CA -11.9468 12.0137 23.8553
CA -43.9804 -5.92213 44.0684
CA -7.60498 19.6645 11.4193
CA -19.2425 13.2133 17.5516
CA 0.172572 -4.53272 19.989
CA -42.1899 -5.49047 52.368
CA -16.2969 18.5377 12.8352
CA -25.9112 6.01712 59.4032
CA -17.5296 32.231 18.8944
CA 6.18883 -9.4403 60.6625
CA -2.21152 -13.3924 48.4731
CA -10.5075 -4.51932 65.0769
CA 7.00572 -10.5603 51.8389
CA -12.4801 -4.86471 65.8541
CA 2.37995 -1.61925 17.9074
CA 7.83981 0.696062 72.5147
CA -16.704 23.3999 15.4981
CA -16.019 7.47679 28.6955
CA 14.6584 -11.2747 53.422
CA -8.4624 8.409 16.386
CA -11.8263 -0.277031 77.5553
CA -24.0523 1.32395 59.4882
CA -14.7413 -3.1825 33.0648
CA -4.73406 -5.51077 23.5065
CA 2.24376 -14.6462 55.2969
CA -27.5055 9.96298 40.5697
CA -10.5087 12.2211 29.0387
CA 15.082 -21.7621 60.7904
CA -20.9552 14.4337 72.3332
CA -13.6786 32.5843 45.89
CA -13.1397 -9.25282 27.8381
CA -43.4736 2.98725 57.4193
CA -10.406 24.3883 27.5786
CA -4.0212 5.07433 18.0772
CA -37.8158 19.9194 51.5611
CA -36.0002 -17.1061 61.7937
CA -23.6896 11.7458 40.5551
CA -41.859 1.25079 40.1701
CA -25.4153 13.7257 42.4373
CA 13.3559 -21.2937 56.6287
CA -4.97997 8.93441 16.1813
CA -40.5564 -6.59676 57.9944
CA -0.924737 -3.15011 19.539
CA -28.2082 -10.1642 53.6463
CA -25.9764 -1.44509 69.008
CA -7.3915 21.9428 15.9049
CA -13.9405 4.00013 37.5031
CA -5.40811 -7.36551 61.0352
CA -3.94035 -2.83459 58.5266
CA -10.2536 3.83574 35.6408
CA -37.6525 -6.51765 60.1917
CA -6.45367 3.43326 15.619
CA -33.4462 1.1104 61.7098
CA -28.1747 -0.872143 64.9466
CA -31.5985 15.9207 68.6617
CA -16.6437 -2.03163 31.2297
CA -12.2353 33.279 47.5878
CA -27.733 5.48698 77.1017
CA -9.41585 16.2929 49.8906
CA -21.1355 5.11801 75.1116
CA -9.94314 -0.753849 80.7908
CA -11.2893 27.7934 33.1867
CA -20.2317 -1.7618 56.967
CA -7.49692 -1.36922 76.9365
CA -4.36455 22.6559 59.771
CA -22.0691 21.5964 44.0258
CA -29.4199 19.378 70.5808
CA -15.0383 15.7501 14.5611
CA 6.37331 -13.4432 54.5604
CA -12.5291 -7.37628 67.9632
CA 15.0824 -15.5449 52.9696
CA 5.45114 -16.7621 54.6745
CA -19.5445 21.1329 15.2618
CA -12.7949 27.4817 46.1785
CA -6.4471 1.27775 14.3314
CA -15.792 -8.69996 53.7504
CA -7.96305 0.868628 28.5574
CA -38.5316 -16.5869 61.7924
CA -17.9727 4.72601 29.7163
CA -35.2868 -13.3812 60.2603
CA -2.89185 -2.92801 21.6379
CA 17.399 -19.3625 58.1515
CA -14.4821 11.5456 35.4516
CA -19.9665 -8.6918 67.7064
CA -19.4109 15.0458 22.7092
CA -23.9735 17.2302 65.1227
CA -13.7356 21.6496 45.8529
CA -21.266 32.921 67.1135
CA -16.6443 13.0834 34.269
CA -32.345 14.2415 52.2774
CA -4.37633 -8.206 91.077
CA -44.8539 -0.590377 50.1555
CA -29.7751 6.7922 60.2322
CA -24.1066 9.82316 48.5227
CA -12.6563 33.1017 17.7876
CA -10.0766 -5.38088 31.6756
CA -32.6459 16.1545 60.4995
CA -20.7516 11.8934 20.9842
CA -0.2391 -0.95098 19.6934
CA -20.9883 7.96592 60.0119
CA 16.61 -18.5703 60.9105
CA -32.6871 14.2116 55.4427
CA -4.84047 -3.42378 60.4368
CA -20.7588 28.0342 70.6149
CA -11.3993 10.3699 32.0949
CA -2.17141 -1.0247 22.0354
CA -7.83753 24.3731 19.6393
CA -43.8355 -15.8086 58.5444
CA -23.2449 15.8081 58.3343
CA -17.5806 -8.55188 54.0385
CA -31.169 10.8841 68.9162
CA -21.8511 12.2858 16.955
CA -24.7079 10.3858 18.7307
CA -20.5404 20.4103 65.1275
CA -17.5619 -5.88749 64.989
CA -37.0117 0.647307 30.6661
CA 1.12011 -17.9217 59.8331
CA -28.9957 0.726893 64.1671
CA -47.9779 -3.55166 50.9663
CA -12.1528 -10.2854 65.4112
CA -11.3632 4.65274 32.3466
CA -47.7825 -7.34065 42.7741
CA -4.02073 -14.5518 55.3965
CA -15.3355 -4.72929 67.5517
CA 5.47324 -6.34031 52.7293
CA 10.0126 -8.04802 57.6887
CA -17.1008 3.26498 31.225
CA -13.4652 -3.04338 62.891
CA -13.3374 17.0542 66.0334
CA -2.97639 -13.9423 17.4222
CA -14.4282 12.6007 28.5196
CA -14.9329 2.53723 34.9609
CA -36.2162 12.0868 57.1783
CA -15.3038 20.2763 34.6623
CA -19.9597 30.2577 64.3573
CA -15.9809 23.8904 27.5515
CA -26.5222 10.9052 53.3417
CA -26.6544 16.2061 64.5698
CA -42.9423 5.01106 50.0689
CA -29.8421 8.37602 52.4896
CA -17.0755 22.8533 37.02
CA -8.77772 -6.14914 26.3702
CA -12.5012 10.8423 29.9777
CA -20.2322 8.14422 18.2149
CA -2.04999 0.681474 60.9336
CA -18.9908 -6.72155 59.3794
CA -17.6441 10.5952 34.8767
CA -9.06282 -14.0047 89.3187
CA -33.6004 17.0305 54.2738
CA -15.7588 2.6788 36.6576
CA -28.6339 19.2531 62.1419
CA -25.6746 7.38789 74.3509
CA -22.9031 16.1761 19.1619
CA -12.6982 -4.87535 70.0774
CA -18.315 10.9233 38.1762
CA -16.7747 8.85476 70.1786
CA -34.5375 14.3491 68.519
CA -24.0504 13.5985 38.0061
CA -2.39092 -1.17517 62.1062
CA -7.10606 -16.1138 16.0616
CA -7.28324 -5.7413 52.5572
CA -8.36165 2.33944 69.247
CA -39.798 -0.257364 50.5189
CA -20.5762 4.91417 32.1789
CA -31.3408 17.5152 55.3078
CA -39.2581 2.92726 47.4953
CA -14.5493 -13.2799 56.324
CA -3.52254 -4.00307 62.0475
CA -48.1161 -10.5966 52.1088
CA -8.69982 -4.4391 78.6053
CA -37.2378 -4.82926 67.8035
CA -11.909 21.1195 32.7837
CA -20.8473 -9.22124 49.0611
CA 4.13323 -10.7974 60.6388
CA -16.3276 15.2012 15.7651
CA -1.26577 -8.80148 71.3092
CA -9.81157 31.7449 47.2024
CA -4.69395 -1.98861 56.9264
CA -9.49507 -6.03543 64.0497
CA -14.2384 16.7043 48.5341
CA -46.1561 -6.38821 44.2105
CA -15.6111 13.9909 71.779
CA -24.5851 16.7083 41.2002
CA -23.1024 11.9328 21.6203
CA -20.8187 10.0794 57.0273
CA 4.49188 -14.3441 52.8453
CA -17.0236 15.3157 13.5041
CA -11.1459 -5.89795 82.1248
CA -22.4321 2.69546 74.0528
CA -15.7513 -4.30767 64.3429
CA -11.2725 -10.7892 67.1497
CA -11.64 16.6029 22.0342
CA -1.43261 -9.52621 54.0431
CA -10.0487 -2.08587 58.6994
CA -24.6054 -4.80565 62.4109
CA -13.4062 -1.46849 74.1038
CA -11.5908 5.08494 36.7813
CA -42.556 -6.71001 58.0019
CA -25.2947 11.8682 37.4367
CA -30.7655 19.5947 55.4397
CA -22.2767 10.9334 55.4694
CA -31.4703 -5.89434 54.6479
CA -26.8733 -3.21599 63.2837
CA -7.34695 7.02189 37.9166
CA -21.8985 -3.55263 61.791
CA -17.7464 7.5032 24.3072
CA -40.319 10.1062 46.86
CA -13.0174 -9.70357 63.3663
CA -14.8111 10.3994 33.2579
CA -16.4434 16.8303 34.9523
CA -25.9199 -3.24598 70.2075
CA -9.87112 18.2549 31.5185
CA -15.0101 -7.79118 83.8581
CA -14 -6.14287 67.3609
CA -2.68664 -11.8891 56.6529
CA -36.9642 -11.8675 61.7236
CA -32.1904 16.3564 58.0968
CA -2.28077 -0.366054 24.0926
CA -10.3203 22.1067 17.4887
CA -33.9592 -4.19078 66.5363
CA -14.6238 15.113 31.1661
CA -45.8782 -14.0273 54.5613
CA -14.7253 18.4444 35.3358
CA -21.2503 -9.65539 64.4341
CA -21.5341 1.38971 58.1674
CA -2.72442 -14.5778 64.7152
CA -18.4053 27.0516 69.8468
CA -15.7227 18.8509 47.0835
CA 4.20335 1.97126 72.8947
CA -25.2816 0.692803 70.0564
CA -25.4347 14.877 62.6312
CA -26.2495 13.666 71.3041
CA -30.0201 17.1163 51.6746
CA -27.3893 7.53195 47.6763
CA -22.3686 14.567 51.8997
CA -27.7199 23.3489 75.1781
CA -9.23862 21.519 26.057
CA -10.3753 34.2447 47.1708
CA -10.7884 -6.41362 66.6734
CA -10.4891 17.1665 36.359
CA -1.52756 13.4388 31.6286
CA -29.8059 -1.94666 66.1384
CA -46.4147 -0.36172 46.2002
CA -15.3136 -0.0815287 34.1147
CA 17.5407 -10.6229 55.3388
CA -15.55 34.049 48.9928
CA -21.947 -2.10707 60.0453
CA -34.7445 -15.3709 63.4967
CA -8.04037 21.2056 28.4393
CA -3.95061 -8.77478 54.5844
CA -45.8393 -3.8129 49.8378
CA -13.6249 13.1016 14.6297
CA -2.0215 -7.84741 54.9244
CA -45.1987 -1.70502 52.5239
CA 8.53554 -13.5375 50.6567
CA -36.1128 -6.5988 57.6743
CA -53.5882 0.862154 48.9511
CA -34.4426 14.2051 37.0123
CA -16.1751 28.2474 15.6095
CA -27.2424 -0.904301 54.3239
CA -15.1397 17.2869 39.5164
CA -12.2748 13.8149 21.4918
CA -27.2248 17.2417 69.6477
CA -2.9099 -8.14212 65.3257
CA -33.5698 11.9725 56.1809
CA -12.1066 -4.70308 33.3467
CA -21.7778 3.322 69.6193
CA -16.205 -4.16944 30.4343
CA -17.8934 14.3321 31.5485
CA -24.3744 -13.0054 52.7389
CA -11.8475 8.58918 27.2405
CA -21.1877 21.1212 38.3099
CA -3.07608 -3.88903 24.9715
CA -19.9753 17.3453 43.5441
CA -21.5443 15.5755 21.0067
CA 14.0192 -16.2461 43.7438
CA -17.3708 -2.94183 64.3452
CA -48.6798 -12.4982 52.993
CA -17.3439 29.7695 20.9861
CA 10.6164 -7.39898 53.2503
CA -19.3807 19.4433 71.6814
CA -13.8979 15.8872 29.4217
CA -7.2505 1.74218 67.3449
CA -36.0246 -0.802903 51.5074
CA -19.4141 -6.44711 52.2793
CA -11.5245 -6.42745 80.3927
CA -4.92817 21.0308 56.2771
CA -5.19415 4.53959 37.8915
CA -17.2625 -1.52032 32.9337
CA -42.6383 1.90979 54.935
CA -12.3839 21.1012 18.989
CA -42.5442 1.30234 37.8142
CA -18.9171 11.339 31.827
CA -8.39956 8.39156 28.9521
CA -11.7481 11.988 11.892
CA -17.0599 11.8656 31.7392
CA -6.50102 -13.5295 67.8074
CA -41.1478 3.20586 47.2725
CA -22.1312 3.30195 35.909
CA 4.96826 -20.7402 56.4558
CA -20.7379 -7.85093 61.5837
CA -20.5337 2.73228 55.4499
CA 15.2203 -18.6908 56.838
CA 5.00253 -17.0409 58.6042
CA -12.5737 12.8896 30.4335
CA -15.2835 -9.84719 57.3765
CA 17.7603 -14.1351 58.8304
CA -9.16271 12.9395 35.8642
CA -30.8318 -10.4019 44.4774
CA -15.7382 8.83348 25.4592
CA -14.3479 -11.0128 52.3868
CA -2.06421 -7.87136 87.1086
CA 0.912564 2.54414 20.0837
CA -26.7013 12.0452 69.0711
CA -4.4826 -8.47466 70.568
CA -8.09342 2.24944 29.7925
CA -8.32705 3.87107 20.497
CA -3.01907 -11.055 51.2839
CA -21.2076 18.2252 21.7395
CA -17.7508 5.42506 53.6631
CA -12.8499 11.5548 32.0783
CA -41.3593 2.66027 51.8657
CA -39.8678 6.73816 61.5811
CA -2.87417 -16.9607 19.4613
CA -23.14 7.7581 13.8089
CA -9.59407 27.1683 23.5136
CA -39.0432 -21.334 56.8281
CA -13.8669 1.72438 37.4252
CA -23.4644 1.00249 51.0549
CA -18.4019 11.7572 19.8851
CA -6.98179 5.26196 38.3253
CA -14.9527 17.6137 33.7148
CA -25.829 12.7637 67.1169
CA -12.176 19.1491 58.7851
CA -4.75184 15.7778 32.1101
CA -24.6043 13.5633 23.7584
CA -24.1336 5.81453 18.352
CA -10.5517 -4.25522 62.683
CA -23.4518 20.0933 66.6854
CA -16.6061 -8.3322 88.5966
CA -10.9071 18.564 16.7347
CA -29.9005 20.9761 69.3342
CA -27.6407 2.27331 72.7596
CA -44.5063 -3.72446 55.2372
CA -18.2823 9.77177 21.5917
CA -16.0338 12.0631 24.5442
CA 11.5184 -10.5027 43.6085
CA -6.10913 6.34117 21.9465
CA -19.1772 -8.09151 56.0572
CA 4.25381 -10.7743 54.8173
CA -7.25687 1.75195 65.467
CA -34.1684 -15.6135 59.9508
CA -12.2156 -4.7867 76.4938
CA -11.5809 -0.876742 66.0226
CA -21.9378 10.0612 40.4577
CA -6.41375 8.06769 12.0434
CA 3.01838 -0.323047 71.6626
CA -16.7118 15.0934 37.0381
CA -27.7099 10.978 45.2441
CA -32.4134 20.887 57.7544
CA -25.3433 18.6544 65.9188
CA -25.2478 19.3141 22.8952
CA -7.46257 7.45197 18.2711
CA -10.3059 6.56104 19.2122
CA -29.8418 19.4623 49.69
CA -38.5937 5.99184 63.262
CA -10.5147 -18.8963 13.5596
CA -25.006 25.0226 71.2816
CA -33.6721 13.6332 67.0371
CA -16.3451 27.0751 26.1249
CA -18.608 5.12322 31.4816
CA 2.25005 -2.4201 62.4052
CA -7.73222 -0.500816 75.1262
CA 17.0262 -20.3628 64.3648
CA -7.6327 -10.0732 58.5331
CA -24.6153 12.9248 47.4454
CA -43.5448 1.97403 52.3703
CA -33.5723 -5.38851 68.7609
CA -36.6483 -2.515 33.0426
CA 22.0961 -19.1583 62.3324
CA -13.2413 -9.92007 55.2355
CA -15.7491 10.9667 17.2507
CA -28.955 7.93671 50.5124
CA -22.8877 5.45892 73.9554
CA -28.7173 -9.76811 43.3906
CA -18.6369 24.8555 16.3257
CA -14.5043 18.7207 14.9118
CA -22.2107 5.7525 59.0086
CA -22.0219 9.42274 15.9001
CA -50.5923 -3.99594 41.5075
CA -32.9812 -7.96226 55.9091
CA -29.3311 20.8256 56.7527
CA -16.2523 5.66735 30.8102
CA -31.5878 14.6709 49.4074
CA 15.6483 -20.7141 54.5103
CA -21.4448 13.0981 54.0795
CA -35.5864 -6.34161 53.0548
CA -24.2276 -6.81978 64.9482
CA -32.415 10.8812 59.2154
CA -12.5059 -2.98956 32.7774
CA -31.2967 16.9189 48.8736
CA -45.272 -0.177364 54.1173
CA -20.6036 31.4367 19.5957
CA -13.7313 24.6696 27.4778
CA 4.83975 -10.1776 58.0731
CA -23.11 28.8663 72.5443
CA -18.5188 -0.00327023 34.8779
CA -21.8546 2.2672 77.2472
CA -23.8586 7.6068 61.5857
CA -4.1789 -0.908648 20.2784
CA -35.3775 3.7219 60.4986
CA 16.7045 -8.35115 50.9679
CA -20.7296 10.2429 42.4515
CA -3.96998 -6.83256 24.9724
CA -19.3831 -4.12252 59.3563
CA -21.101 9.67107 61.4442
CA -1.90977 -15.3357 49.9256
CA -3.85983 -5.76633 20.0955
CA 14.2833 -5.26635 53.7293
CA -16.8518 -8.88822 63.1954
CA -22.646 -9.08986 52.4252
CA -16.949 -9.65759 56.3866
CA -49.4198 -1.5199 38.2678
CA -6.94017 18.865 60.8583
CA -41.4709 -4.3701 57.5732
CA 14.1205 -15.8841 55.9626
CA -33.8554 19.2076 59.4107
CA -29.2498 -9.74345 39.0399
CA -9.33101 -5.85944 61.3464
CA -36.3445 21.1927 61.7207
CA -10.8992 24.254 35.7271
CA -38.1444 17.1511 35.6236
CA -24.0936 21.8638 73.5608
CA -20.2137 9.94792 29.3879
CA -22.6608 0.842783 55.7153
CA -21.2102 25.6286 16.6218
CA -13.6888 10.0823 25.2521
CA 1.10671 0.393355 21.1588
CA -9.03347 22.774 27.7503
CA -48.8441 -3.10318 48.8575
CA -21.4467 19.8474 40.2976
CA -14.2683 16.7044 53.4194
CA -21.1859 9.12092 14.0018
CA -1.38395 -6.14471 60.1033
CA -18.6768 20.0916 33.6742
CA -28.5058 12.4205 47.3078
CA -15.1343 14.613 37.8193
CA -19.8586 5.74511 29.8812
CA -25.1752 14.5287 65.5191
CA -41.4029 -20.7749 59.3741
CA -25.788 17.3146 67.959
CA -18.4318 11.7003 23.4437
CA -31.1245 2.47635 66.6364
CA -5.83729 12.7276 21.5664
CA -23.603 20.5794 63.9398
CA -23.6117 3.22704 62.7485
CA -17.4333 14.6372 70.7856
