489

CA -12.1728 23.3777 46.5948
CA -34.1313 -17.647 61.076
CA -27.8625 11.949 53.7601
CA -34.9078 22.7621 61.0704
CA -19.1689 2.38434 79.0466
CA -29.247 9.61197 37.4673
CA -32.6565 -2.5243 63.5584
CA -20.482 22.2692 12.731
CA -44.0765 6.38995 53.5396
CA -36.8454 16.8141 70.2736
CA -27.0421 13.8086 39.8664
CA -22.8731 -0.830323 57.647
CA -12.1447 24.1205 27.2867
CA -41.937 15.4698 54.7437
CA -44.445 -26.128 56.0286
CA -14.3895 4.96156 41.7207
CA -16.5858 6.45453 26.5642
CA 11.948 -11.8016 51.0668
CA -9.12438 -4.36188 28.3803
CA 14.7177 -15.9254 61.7319
CA -18.3694 15.8525 35.0404
CA -33.2554 25.5239 56.762
CA -15.8063 25.5401 36.1449
CA -15.2477 5.63049 37.8084
CA -44.4694 -4.57432 45.4929
CA -8.54073 29.881 23.1928
CA -22.4293 21.7395 46.4202
CA -12.2858 11.1793 14.4279
CA -4.04868 0.444745 71.4807
CA -17.8596 26.5775 28.2433
CA 8.67593 -12.8953 53.9178
CA -31.0158 14.2687 58.1944
CA -28.6815 -8.85881 33.8358
CA -11.0837 6.1557 77.1874
CA -10.8994 -20.677 15.1267
CA -39.7463 -6.5574 57.8259
CA -14.7205 -7.30538 64.373
CA -11.2185 13.0203 24.1659
CA -16.2969 18.5377 12.8352
CA 0.0245962 -7.54172 61.9865
CA 2.34132 -19.3393 57.2618
CA -28.6361 11.7773 44.1748
CA -46.9114 -0.650698 39.4701
CA -29.129 21.1166 29.1142
CA 7.00572 -10.5603 51.8389
CA -11.4588 13.9752 35.7398
CA -13.3634 2.90515 35.7675
CA -12.5387 12.5037 75.2214
CA -11.6663 25.998 25.8364
CA -21.8618 4.40868 62.9672
CA -25.1358 18.029 31.6236
CA 5.12903 -3.03454 70.0039
CA -11.8263 -0.277031 77.5553
CA -8.8528 6.22984 14.5963
CA -33.9023 -0.0873518 63.3865
CA -23.4885 30.1989 66.4703
CA -39.2322 -1.57493 53.1041
CA -16.4558 7.73817 36.579
CA -21.1457 3.84365 40.8723
CA -21.0327 11.1258 76.5464
CA -20.9552 14.4337 72.3332
CA -50.6074 -4.18883 55.4977
CA -43.778 -1.91112 55.3265
CA -20.0907 4.02774 77.247
CA 0.913636 -1.43941 71.4605
CA 6.3007 -3.32102 68.4284
CA -30.8244 -11.8309 66.4176
CA -45.8659 -3.38936 53.9637
CA -18.6184 11.4926 25.0074
CA -45.8254 -2.14063 57.0696
CA -23.9193 3.27804 66.2128
CA -11.6154 21.1224 14.9078
CA -19.0015 10.0245 75.9568
CA -22.5397 18.873 44.0108
CA -12.4376 13.9158 14.9075
CA -40.8818 -3.86252 52.5979
CA -6.23146 -15.7563 56.9094
CA 0.886672 -2.05 65.4004
CA -13.5158 -4.09259 60.1885
CA -45.4272 6.97291 51.1376
CA -38.3085 8.75772 57.5425
CA -20.7252 0.167762 78.7234
CA -41.7618 -5.36215 43.4858
CA -6.45367 3.43326 15.619
CA -26.9415 11.913 61.1717
CA -41.9455 4.37117 53.9694
CA -40.3465 3.84549 57.652
CA 6.60304 -1.68305 70.1365
CA -3.26358 -10.9308 69.7289
CA -17.7633 -1.34149 56.9587
CA -37.8444 -2.15525 42.6564
CA -21.1355 5.11801 75.1116
CA -24.2022 13.9789 19.6245
CA -9.09116 17.0624 32.6572
CA 2.15036 4.54519 23.4699
CA -14.3804 8.32916 26.8199
CA -20.1019 1.22215 67.2994
CA -13.0502 16.1653 17.6419
CA -21.0574 1.19995 41.019
CA -23.4894 13.7298 36.5584
CA -16.7843 20.8749 9.21826
CA -8.56379 -6.05037 83.3628
CA 15.0824 -15.5449 52.9696
CA -24.6676 7.07322 17.1308
CA -35.1926 13.605 38.8124
CA -31.8468 14.6651 53.4687
CA -3.8306 2.73065 21.0661
CA -29.2948 18.3894 61.4457
CA -3.52011 24.2692 15.4752
CA -38.5316 -16.5869 61.7924
CA -5.0708 -8.37971 20.9889
CA -0.96877 -12.1858 66.0586
CA -2.89185 -2.92801 21.6379
CA -30.8504 19.8026 72.5786
CA -15.3355 12.6304 71.8181
CA -19.9665 -8.6918 67.7064
CA -25.9498 12.9603 63.6399
CA 4.04916 -13.1848 54.4828
CA -36.0984 -3.52809 53.7031
CA -8.16151 3.79533 76.803
CA -21.1534 1.9552 59.6159
CA -38.2919 9.92258 53.9772
CA -17.0624 23.2167 31.9113
CA -27.3677 9.94072 34.0816
CA -32.6863 19.3992 65.9968
CA -21.7472 6.82149 76.9003
CA -30.8187 14.9236 49.4804
CA -20.4458 3.38097 64.316
CA -29.4921 18.5548 53.4262
CA -25.7272 10.0601 38.488
CA -0.2391 -0.95098 19.6934
CA -24.0598 16.2397 37.9196
CA -30.0274 15.6262 44.8669
CA -8.1742 11.2541 13.179
CA -10.424 2.97773 65.0655
CA -16.8999 24.6214 30.1999
CA -9.68882 -3.12033 38.9581
CA -18.4955 18.5706 44.9182
CA -7.83753 24.3731 19.6393
CA -5.34306 20.9567 12.3575
CA -9.9656 32.4702 52.3631
CA -45.1624 1.53634 45.5605
CA -13.3118 -12.579 63.7477
CA -13.6295 22.511 27.3293
CA -24.7079 10.3858 18.7307
CA -47.4785 -2.80824 60.7379
CA -17.5619 -5.88749 64.989
CA -37.0117 0.647307 30.6661
CA -23.8805 5.08456 65.0299
CA -47.4507 7.20524 57.6192
CA -28.3172 13.339 58.7202
CA -33.8738 -8.50101 63.2005
CA 9.84348 -13.1844 49.1456
CA -13.8252 10.3845 22.8067
CA -37.7511 1.50289 52.1429
CA -31.495 -15.4139 60.8036
CA 4.80545 -14.6204 47.5225
CA -8.15332 -12.636 56.4572
CA -35.6611 19.2378 68.8933
CA -18.5849 23.3339 10.9732
CA -18.2832 32.1809 49.3672
CA -18.2692 2.42274 75.4962
CA 0.305642 -15.2252 68.2692
CA -14.8585 19.646 49.1379
CA -10.515 25.3216 23.9957
CA -40.9832 -2.12154 52.0553
CA -19.9597 30.2577 64.3573
CA -15.9809 23.8904 27.5515
CA -3.30331 -11.7698 16.1073
CA -26.6544 16.2061 64.5698
CA -9.93461 -0.333354 74.3758
CA -23.1557 0.209265 41.1322
CA -5.67651 -3.73465 65.587
CA -12.934 20.5406 20.0694
CA 0.291173 -16.1586 54.3292
CA -5.56382 19.3996 11.1808
CA -18.5161 22.6512 12.814
CA -16.6747 10.3638 32.206
CA -28.7918 13.5054 42.2488
CA -29.5369 8.74247 35.2171
CA -21.2669 28.9122 65.0691
CA -21.7125 -2.16159 63.5875
CA -8.01565 0.267243 41.7604
CA -28.8829 16.1458 41.9857
CA -31.0898 -8.44251 61.1327
CA -6.76954 24.196 26.223
CA -45.3417 6.44782 40.9417
CA -36.4365 -11.9076 57.7255
CA -18.7253 3.23158 63.4543
CA 3.45275 -0.294749 69.8298
CA 1.31913 1.22971 24.8831
CA -13.5395 18.3701 36.861
CA -14.0064 17.953 25.1946
CA -4.26947 -4.5212 81.3691
CA -19.1754 24.5574 17.2081
CA -21.9568 19.2569 46.069
CA -21.9009 19.3629 35.3107
CA -39.2581 2.92726 47.4953
CA -21.8974 -6.06072 61.2029
CA 18.6296 -14.3907 58.0436
CA -46.4613 4.37524 46.753
CA 8.05594 -14.7545 46.4278
CA -18.559 1.36305 65.0449
CA -11.909 21.1195 32.7837
CA -20.8473 -9.22124 49.0611
CA -18.2417 -12.08 51.9763
CA -36.0408 -3.0516 51.9029
CA -24.7568 14.777 41.8188
CA -35.4751 12.8514 67.9251
CA -4.69395 -1.98861 56.9264
CA -4.91131 7.78969 22.5636
CA -14.2384 16.7043 48.5341
CA -40.9658 2.01425 54.0339
CA -27.5302 14.9301 60.3429
CA -41.3623 -0.884321 30.1232
CA -2.21894 -3.85152 80.7422
CA -19.6192 8.40742 64.0141
CA -49.5343 -3.24102 44.8024
CA -24.7387 13.1687 76.2893
CA -7.60866 -4.66774 60.4954
CA -22.4321 2.69546 74.0528
CA -30.8917 15.875 34.8664
CA -10.9063 22.1027 39.0691
CA -15.9139 14.5028 51.5052
CA -1.43261 -9.52621 54.0431
CA -16.501 31.019 21.9781
CA -24.6054 -4.80565 62.4109
CA -31.0571 11.0003 36.4408
CA -44.5689 0.622801 57.9297
CA 15.0822 -11.4951 57.9198
CA -18.7613 5.82149 43.8286
CA -24.7749 7.55737 63.6775
CA -50.4062 -1.89205 59.0575
CA -8.34879 -20.7041 16.1502
CA -22.9623 19.0241 41.546
CA -16.95 2.62529 27.5714
CA 11.6281 -9.43116 48.0306
CA -27.1511 22.6484 25.4258
CA -28.9565 15.9169 55.5488
CA 1.95138 -13.2323 46.3351
CA -22.5318 7.39391 61.6767
CA -19.0848 2.90836 38.9387
CA -35.7622 -0.927767 59.1694
CA -21.0244 9.91759 80.4279
CA 17.1868 -10.5398 61.8348
CA -14 -6.14287 67.3609
CA -5.55681 2.85328 31.5677
CA -36.9642 -11.8675 61.7236
CA -4.3671 -7.22736 63.9309
CA -41.3375 -8.16176 59.6209
CA -17.6875 21.6808 20.8611
CA -33.9592 -4.19078 66.5363
CA -3.58301 -14.1961 68.8515
CA -28.0622 9.49679 48.4501
CA 17.8412 -17.9197 59.4305
CA -29.7633 14.1024 46.747
CA -23.4885 3.22054 62.8415
CA -45.2919 -1.71369 40.6417
CA -31.754 19.5479 70.9548
CA -15.7227 18.8509 47.0835
CA -19.2528 15.5292 46.9287
CA -25.2816 0.692803 70.0564
CA -41.4338 -7.48646 54.2758
CA -43.6814 -3.54891 51.4544
CA -4.33773 -16.161 67.32
CA 7.87402 -9.623 49.8217
CA -47.0243 2.74074 50.5825
CA -7.88146 3.48227 32.3135
CA -17.2628 13.3424 47.7683
CA -26.0171 -3.22978 69.211
CA -46.6114 0.968975 51.1265
CA -11.9488 3.29651 77.4397
CA -16.1211 15.5111 34.367
CA -11.8767 31.6852 22.6526
CA -32.2621 -0.820552 64.4565
CA -39.7194 16.9371 50.9105
CA -43.3646 -1.69857 52.0306
CA -24.9433 27.9609 62.2657
CA -28.3069 20.0833 50.944
CA -41.0752 2.866 66.1292
CA -18.4868 26.7486 14.9609
CA -44.5439 2.25124 55.1703
CA -28.0274 11.0631 32.797
CA 8.89652 -11.8022 50.0646
CA -13.083 0.338275 28.6192
CA -42.7067 6.0362 38.8566
CA -18.4477 -9.11761 55.4476
CA -15.409 9.64493 33.8008
CA -32.0711 -11.9891 59.0072
CA -34.4426 14.2051 37.0123
CA -16.1751 28.2474 15.6095
CA -18.7633 21.5345 24.468
CA -26.3956 -3.48652 59.1684
CA -19.4449 18.6177 39.3637
CA -1.43237 1.75733 60.3576
CA -9.79879 -5.44823 63.8241
CA 15.1951 -16.7436 56.5155
CA -23.32 6.6412 55.605
CA -23.72 22.4595 44.2799
CA -23.0042 24.8289 70.795
CA -4.43377 13.0766 24.2896
CA -5.7017 4.37103 33.1513
CA -12.9393 20.5826 16.6509
CA -21.1877 21.1212 38.3099
CA -9.2465 30.9845 45.7296
CA -53.2857 -6.90948 40.8255
CA -6.34024 -15.7027 54.4778
CA -32.2668 0.799479 66.8603
CA -12.5738 11.2248 24.6745
CA -36.6463 18.2126 46.3456
CA -17.3439 29.7695 20.9861
CA -15.9948 -7.02056 68.2451
CA -14.4702 -2.88092 62.2664
CA -13.8979 15.8872 29.4217
CA -36.1573 -17.1702 60.5781
CA -36.0246 -0.802903 51.5074
CA -3.44624 -19.0032 56.3755
CA -11.5245 -6.42745 80.3927
CA -5.98782 -10.3435 67.2098
CA -17.2974 22.8877 26.5173
CA -17.2625 -1.52032 32.9337
CA -42.6383 1.90979 54.935
CA -34.4666 16.1502 34.8233
CA -16.3041 13.7854 29.5154
CA -9.16255 5.20617 34.9386
CA -22.8143 16.9255 36.5252
CA -34.6917 18.4875 71.9787
CA -26.9132 13.7889 45.5223
CA -5.32674 -4.49772 85.7772
CA -2.51538 6.41405 17.0826
CA -28.2738 14.8677 53.1515
CA 4.96826 -20.7402 56.4558
CA -15.6652 26.7446 33.8795
CA -38.2417 22.8638 58.5906
CA -26.1241 -4.08407 61.3722
CA 5.00253 -17.0409 58.6042
CA -19.7689 -4.50824 56.5172
CA -4.56007 0.935332 57.7571
CA -12.2474 32.7492 15.9648
CA -43.7986 4.89082 57.4583
CA -37.3692 18.0372 49.606
CA -15.7382 8.83348 25.4592
CA -43.1133 0.998858 48.0415
CA -2.06421 -7.87136 87.1086
CA 0.912564 2.54414 20.0837
CA -12.1465 22.505 49.0851
CA -10.4353 16.6579 16.1843
CA -26.2518 15.4791 44.8318
CA -42.1586 1.94654 44.9005
CA -22.5135 10.9119 74.999
CA 5.73548 0.442116 71.1849
CA -16.5363 -0.960132 38.2304
CA -13.2047 2.69577 33.7389
CA -34.3136 13.5761 50.3121
CA -39.2784 9.64615 55.8428
CA -2.87417 -16.9607 19.4613
CA -26.2256 22.5541 73.5447
CA -9.59407 27.1683 23.5136
CA -16.6982 -6.84246 54.6839
CA 3.40772 -10.0495 58.1782
CA -34.8743 20.5453 62.8809
CA -18.4019 11.7572 19.8851
CA -11.6651 -6.11123 60.6428
CA -35.3835 0.174498 54.4547
CA -17.086 -8.68592 52.7223
CA 17.9677 -8.8687 62.3158
CA -28.1275 21.3638 52.8727
CA -34.7839 -15.2334 64.9349
CA -9.80537 23.5853 32.5762
CA -10.5517 -4.25522 62.683
CA -23.4518 20.0933 66.6854
CA -38.2424 15.01 47.9768
CA -38.295 -10.3633 56.5966
CA -21.7213 4.68332 66.5282
CA -43.2385 -2.24354 58.4315
CA -29.5648 -18.046 58.9215
CA -16.3386 23.6285 24.0499
CA -14.0807 24.8836 50.6173
CA -0.203945 -12.7338 47.7379
CA -41.72 1.30876 56.6548
CA -20.684 10.128 24.0602
CA 14.4401 -13.3947 57.9968
CA -19.122 9.79091 21.013
CA -14.1465 0.12259 33.7836
CA -12.3517 4.17004 31.5068
CA -29.08 -3.93386 57.7906
CA -17.4927 34.1415 16.0749
CA 16.4248 -13.3927 58.9924
CA 3.01838 -0.323047 71.6626
CA -41.1544 1.51932 58.4655
CA -44.5307 18.1383 56.6775
CA -32.4134 20.887 57.7544
CA -0.575377 -5.66062 22.8412
CA -25.2478 19.3141 22.8952
CA -4.87586 -15.4692 46.8386
CA -46.2768 4.0774 54.5528
CA -47.5737 -1.03758 55.6339
CA -18.6195 0.195318 73.7464
CA -13.0914 23.3469 16.7943
CA -39.0011 7.85379 63.718
CA -31.3861 -7.01289 59.9895
CA -12.5582 19.1855 46.8776
CA -8.30587 23.9381 33.7241
CA -30.598 -1.27787 68.8497
CA -7.73222 -0.500816 75.1262
CA -5.60592 23.6923 16.8374
CA -7.6327 -10.0732 58.5331
CA -40.1717 -0.711065 55.5925
CA -50.5158 -6.57859 41.509
CA -3.68785 4.23679 15.7663
CA -21.7211 24.8996 14.9403
CA 0.0583352 -16.3448 42.4525
CA -14.9222 26.7656 26.5207
CA -47.3775 3.32016 45.3925
CA -28.955 7.93671 50.5124
CA -27.56 13.7169 63.0446
CA 15.6438 -7.30621 49.2157
CA -38.38 14.6396 59.4662
CA -38.4015 6.06658 65.2583
CA 1.01973 -19.0694 51.839
CA -20.5824 13.1511 63.8394
CA -50.5923 -3.99594 41.5075
CA -32.9812 -7.96226 55.9091
CA -8.41166 5.84607 33.3827
CA -24.0008 2.98263 73.1281
CA -29.6415 -3.41739 69.1698
CA 15.6483 -20.7141 54.5103
CA -10.374 33.5657 18.7678
CA -20.7133 13.0913 74.6599
CA -40.0857 3.33095 38.3349
CA -33.2044 12.5677 57.6255
CA -14.4955 19.1532 22.1567
CA -31.2967 16.9189 48.8736
CA -14.7152 25.2244 25.542
CA -20.8172 9.82564 62.654
CA -36.2607 16.4658 50.0786
CA -20.8854 6.93771 64.04
CA -7.15643 -5.19417 67.0548
CA -18.5188 -0.00327023 34.8779
CA -26.331 15.7048 33.612
CA -20.0762 7.01036 75.0189
CA -36.5764 -10.4097 59.601
CA -24.2773 3.41872 39.6745
CA -10.2284 -4.92241 57.2925
CA -29.3207 13.3666 51.7095
CA -16.2626 2.28406 31.9548
CA -46.85 0.970192 47.2163
CA -10.2957 15.9332 38.5191
CA -42.8032 15.1453 57.2494
CA -25.86 0.474099 42.1066
CA -1.56158 -12.951 55.1739
CA -8.82906 -1.26898 38.9441
CA -2.26331 -14.8291 55.9537
CA -16.949 -9.65759 56.3866
CA -22.2794 31.5165 65.037
CA -32.7445 20.9134 68.2584
CA -15.3398 19.3976 53.1733
CA -27.4132 30.5531 63.5436
CA -13.6836 16.2497 52.2484
CA 12.4606 -14.385 58.4884
CA -9.33101 -5.85944 61.3464
CA -18.403 7.61096 37.0092
CA -49.2294 0.590547 46.2887
CA -43.0545 14.7349 60.4648
CA -46.3877 2.14625 55.1983
CA -14.5664 7.02901 39.2232
CA -26.3538 -4.86311 36.5511
CA -24.5168 17.2791 23.6547
CA -7.84437 -0.061687 78.762
CA -42.0819 -1.3955 57.0154
CA -9.03347 22.774 27.7503
CA -2.30118 -4.55013 62.8879
CA -15.6129 20.0368 45.6316
CA -4.47147 -6.09438 51.1705
CA -33.0459 -6.3537 63.316
CA -31.8652 16.0264 55.4269
CA -15.3117 -6.39257 60.9358
CA -15.6554 4.62124 23.5971
CA -15.1343 14.613 37.8193
CA -15.0424 3.04713 33.2504
CA 6.71271 -7.81608 54.7236
CA -41.4029 -20.7749 59.3741
CA -17.7337 21.935 29.7171
CA -10.4332 -0.898385 64.0178
CA 2.588 1.86516 68.5112
CA -28.8628 -5.40328 58.8968
CA -24.196 -0.468031 38.2115
CA -9.64243 -2.45304 68.7512
CA -17.4333 14.6372 70.7856
