489

CA -19.3997 10.1557 65.5829
CA -34.1313 -17.647 61.076
CA -10.0075 4.60269 38.778
CA 9.98478 -13.1621 43.8994
CA -19.1689 2.38434 79.0466
CA -12.0383 8.95535 27.2691
CA -12.9911 11.0216 26.7496
CA -20.482 22.2692 12.731
CA -28.5459 23.4017 28.227
CA -6.95203 3.31489 80.2635
CA -47.251 9.07911 42.7226
CA -24.2389 14.2694 60.8462
CA -10.3071 0.727856 78.8925
CA -42.0581 16.6099 55.6413
CA -22.1733 3.20447 78.8919
CA -9.74614 -11.1657 54.6013
CA -11.1963 8.21834 66.5123
CA -13.4529 -0.864332 61.0572
CA 1.0914 -15.535 51.8516
CA -24.4203 13.457 55.5634
CA 5.90593 -9.3412 53.4114
CA -33.2554 25.5239 56.762
CA -15.8063 25.5401 36.1449
CA -28.6537 -8.26482 40.2284
CA -18.6838 10.0535 57.3076
CA -6.65047 -2.52778 70.1294
CA -22.4293 21.7395 46.4202
CA -9.39496 8.26868 10.5001
CA -26.789 16.4292 64.9129
CA -37.4463 -0.66958 49.9176
CA 8.67593 -12.8953 53.9178
CA -12.0246 -3.64237 75.0294
CA -47.7548 -0.0207599 48.8118
CA -11.0837 6.1557 77.1874
CA -23.6949 4.28284 35.5479
CA -40.1924 3.88077 40.7116
CA -39.2971 2.26213 40.251
CA -23.1138 -2.64715 29.8616
CA -20.1014 1.93164 57.4168
CA -15.6689 0.0441494 38.907
CA 2.34132 -19.3393 57.2618
CA -8.80476 7.15964 65.2589
CA 13.1928 -17.1748 46.1794
CA -7.29427 6.51577 62.2883
CA 7.00572 -10.5603 51.8389
CA -36.462 18.5827 72.0015
CA -13.3634 2.90515 35.7675
CA -20.5456 29.3337 20.4017
CA 13.5334 -7.69837 44.778
CA -23.3655 7.39018 62.3114
CA -34.5826 -14.5796 59.8004
CA -13.7223 6.23873 62.0103
CA -11.8263 -0.277031 77.5553
CA -19.3431 17.9965 8.02875
CA -33.9023 -0.0873518 63.3865
CA -10.5578 -2.61564 27.5583
CA -4.33053 4.94974 53.3573
CA 6.15425 -13.0681 53.3717
CA -26.1867 7.62638 78.9173
CA 0.205097 4.35186 17.615
CA -30.7455 0.196011 61.6083
CA -27.2178 5.29319 60.6864
CA -21.0442 17.7023 45.9353
CA -3.48269 -13.713 57.3424
CA -33.7135 19.0771 59.4056
CA 6.3007 -3.32102 68.4284
CA -20.8353 2.17292 35.8022
CA 9.07427 -9.85731 48.1493
CA -20.3661 0.969604 52.4913
CA 14.7725 -12.4305 43.1601
CA -25.4261 23.0876 53.7578
CA -11.6154 21.1224 14.9078
CA -25.4791 10.4779 46.2611
CA -22.5397 18.873 44.0108
CA -12.4376 13.9158 14.9075
CA -40.8818 -3.86252 52.5979
CA -6.23146 -15.7563 56.9094
CA -12.9431 20.1413 22.7392
CA -13.8156 -5.47122 63.0628
CA -45.5816 0.297335 46.8327
CA -11.5553 25.5266 50.2851
CA -16.5074 11.4118 29.6459
CA -13.1157 -9.33332 70.9398
CA -6.45367 3.43326 15.619
CA -17.6321 33.8606 59.086
CA -26.8055 16.0288 57.4094
CA -18.9988 -6.81135 68.0735
CA -15.5089 16.4815 51.4339
CA -25.0666 20.3623 30.6943
CA 9.15951 -13.5933 56.6453
CA 12.8283 -13.944 42.0058
CA 3.0653 -8.37526 59.5591
CA -51.7613 3.15012 46.9816
CA 4.73414 -22.3329 60.3795
CA -13.1519 21.6605 18.0936
CA -29.6082 -1.19699 61.8158
CA -6.95739 -10.268 52.3888
CA -38.6104 8.53012 65.6863
CA -21.8336 3.92689 64.2088
CA 7.80716 -2.45592 73.1662
CA -13.0189 18.3469 23.6042
CA -8.56379 -6.05037 83.3628
CA -24.7436 10.5978 15.4828
CA -8.8478 34.17 20.539
CA -35.1926 13.605 38.8124
CA -31.3076 12.4754 56.7205
CA -43.5473 -0.128018 37.6609
CA -36.4963 -0.337576 62.482
CA 11.7232 -16.6751 61.0561
CA -5.82664 -3.82239 53.1087
CA -21.0945 -1.30128 60.5346
CA -48.8341 4.13632 51.0924
CA -29.6821 12.6385 31.3795
CA -13.7001 -10.1862 64.0272
CA 6.46795 -13.2193 56.9188
CA -17.0192 8.73689 51.6406
CA -15.4418 0.0324541 58.2091
CA -7.77585 0.286228 81.2816
CA -32.5288 16.1675 40.5858
CA -5.98126 4.81727 35.0281
CA -7.99404 24.6955 11.8996
CA 1.10304 -15.2935 48.3394
CA -16.9653 16.1122 41.1295
CA -30.4797 31.7822 53.0499
CA -23.45 4.63981 44.4481
CA -45.5565 -5.4147 42.874
CA -24.8133 9.11177 61.9095
CA -42.2267 3.95592 39.621
CA -1.07202 -16.9736 67.7682
CA -34.8836 5.61058 43.3705
CA -13.5699 6.23531 36.5033
CA -20.625 19.082 44.8142
CA -25.4851 3.63956 82.3936
CA -15.1175 17.0772 31.2549
CA -12.9605 2.22235 63.2088
CA -1.36059 -18.7585 60.7877
CA -9.52034 3.64503 34.1095
CA -18.4955 18.5706 44.9182
CA -19.2312 0.862801 40.9619
CA -43.0087 10.5765 52.582
CA -12.6642 -1.2783 31.8194
CA -13.446 16.9684 69.3629
CA -14.4505 18.2291 75.1162
CA -37.492 20.1007 71.0226
CA -11.7619 -4.84306 77.1833
CA -9.79115 25.7024 27.9799
CA -28.5173 -19.4426 57.4475
CA 7.92953 -11.3867 46.9012
CA -21.2366 16.607 71.7523
CA -13.8282 16.0687 50.8116
CA -28.3172 13.339 58.7202
CA -17.4756 -0.37733 42.3025
CA -17.2753 -5.19696 32.6922
CA -13.3784 -1.24958 38.7016
CA -12.3994 4.3675 28.5481
CA -31.495 -15.4139 60.8036
CA -27.8466 23.4094 23.6213
CA -18.4374 15.0945 70.4612
CA -35.6611 19.2378 68.8933
CA 8.79173 -15.2467 58.1381
CA -22.9297 15.4226 50.8292
CA -16.714 21.0378 15.6966
CA 1.73803 0.571063 75.1833
CA -32.0305 0.515633 66.2158
CA -16.9663 1.05894 76.6449
CA -20.4509 0.516693 80.2061
CA -8.61838 3.36352 81.1434
CA -41.8454 7.13598 53.21
CA 10.8117 -10.4196 49.9482
CA -36.3755 -13.7329 61.791
CA -6.81206 -11.3648 54.5427
CA -19.475 2.68582 33.3179
CA -5.67651 -3.73465 65.587
CA -12.934 20.5406 20.0694
CA 17.0949 -16.5505 60.2866
CA -1.73847 -2.03366 71.2579
CA -18.5161 22.6512 12.814
CA -13.9926 -2.92314 67.5661
CA -39.0474 2.69115 51.124
CA -37.122 6.16051 53.8937
CA -36.2248 -6.44147 64.0787
CA -21.7125 -2.16159 63.5875
CA -21.6995 17.3651 39.8606
CA -8.77208 18.9195 18.0959
CA -27.6581 18.9792 25.0638
CA -9.30453 6.01192 12.4507
CA 13.7198 -14.6812 48.9636
CA -36.4365 -11.9076 57.7255
CA -46.1438 8.89772 53.8064
CA 8.39026 -6.78118 50.1135
CA -29.5159 28.111 55.1573
CA -28.3948 17.7557 51.8291
CA -11.3694 21.7571 20.1865
CA -4.26947 -4.5212 81.3691
CA 12.1903 -7.67305 48.8305
CA -6.50149 -8.23924 55.5255
CA -22.623 -2.70539 70.5575
CA -31.249 16.4276 45.7713
CA 0.920213 -13.3751 69.8219
CA -12.1046 2.04058 36.8615
CA 12.8425 -12.9435 46.4856
CA 0.769977 -23.7818 65.3338
CA -20.6817 0.0514661 62.7419
CA -11.909 21.1195 32.7837
CA -17.2077 -0.683894 61.322
CA -26.1416 5.0386 63.7056
CA -22.2389 -3.60167 66.2118
CA -37.3825 6.74269 62.6331
CA -12.9431 -4.42218 33.4498
CA -42.6034 -5.25138 52.274
CA -23.6442 15.0678 49.1597
CA 2.76557 -15.7039 56.4817
CA -40.9658 2.01425 54.0339
CA -28.8853 15.9425 47.9279
CA -41.3623 -0.884321 30.1232
CA -42.2993 -2.5357 32.6622
CA -11.4497 -0.761008 75.821
CA -18.2805 -1.08954 56.2094
CA -24.7387 13.1687 76.2893
CA -5.21948 -13.6624 58.3077
CA -14.5929 -7.74901 72.3641
CA 15.9716 -17.7001 57.1722
CA -12.2778 4.29365 79.9188
CA 0.052455 -15.6635 61.7079
CA -37.4332 9.57476 63.7562
CA -30.5218 -8.29521 62.4244
CA -6.89845 19.9182 52.5377
CA -31.0571 11.0003 36.4408
CA -30.586 -8.86091 59.2285
CA -16.9628 -0.183453 65.5081
CA -14.1772 -1.4841 36.0258
CA -9.49788 28.9337 19.0864
CA -26.5312 26.2824 21.3492
CA -2.50132 -0.116279 69.4057
CA -23.0783 6.67798 78.8233
CA -32.2661 20.5376 56.2914
CA -22.2021 8.14831 74.6191
CA -17.0493 -2.52811 72.4191
CA -21.806 -3.57724 55.5645
CA -17.6352 28.0544 18.1885
CA -51.3416 -2.04026 44.5706
CA -38.0937 4.91006 30.6123
CA -27.6179 22.6477 52.391
CA -13.9594 -3.04537 31.8352
CA -14.1804 1.78435 77.5211
CA -29.026 20.9731 53.2004
CA -20.566 24.9178 22.5137
CA -33.2152 8.08219 62.8735
CA 6.67419 -9.67263 62.3856
CA 4.52252 -14.6973 54.3641
CA -17.6875 21.6808 20.8611
CA -16.0632 16.0759 71.1128
CA 1.60221 -11.3707 46.6651
CA -9.22917 34.6571 16.1917
CA -17.2795 12.6984 49.9463
CA -40.5218 6.63079 59.9545
CA -14.6162 -5.42386 68.0516
CA -45.2919 -1.71369 40.6417
CA -15.3142 17.2226 26.7807
CA -38.3818 -8.46483 58.2118
CA -19.2528 15.5292 46.9287
CA -10.2855 -4.26197 80.3704
CA -10.4917 -0.160375 74.0238
CA 17.984 -13.8219 64.2927
CA -15.3056 14.9798 57.9343
CA -15.4443 6.73879 58.7436
CA 11.4267 -10.7609 45.662
CA -27.6791 25.4795 52.4667
CA -17.2628 13.3424 47.7683
CA -30.4222 24.0887 55.3018
CA -46.6114 0.968975 51.1265
CA -11.9488 3.29651 77.4397
CA -16.1211 15.5111 34.367
CA 12.1598 -9.65239 41.2417
CA -19.3846 22.875 17.2311
CA -39.7194 16.9371 50.9105
CA -38.2986 2.52886 42.8188
CA -21.5324 26.3554 27.1103
CA -7.0766 7.9687 64.8856
CA -0.479292 -4.68124 64.0111
CA -12.8854 -2.5669 55.5216
CA -36.572 -10.4054 62.9458
CA -22.0802 28.5985 21.8723
CA 8.89652 -11.8022 50.0646
CA -34.1165 21.0441 47.6761
CA -42.7067 6.0362 38.8566
CA -34.5138 -9.55765 59.1405
CA -15.409 9.64493 33.8008
CA -33.1553 11.0623 61.8283
CA -1.6383 -6.72547 62.041
CA -29.6139 16.7228 31.5462
CA -18.7633 21.5345 24.468
CA 9.56273 -12.7001 48.4622
CA 2.63266 -20.2632 63.4003
CA -41.674 5.97589 48.3713
CA -6.30219 22.8742 51.0419
CA -1.94156 -10.0102 18.112
CA -47.066 12.1063 38.7959
CA -5.78219 0.674277 71.0485
CA -10.2062 19.0105 30.2054
CA -4.38225 -0.679099 73.3492
CA -8.05465 9.53862 35.0192
CA -12.9393 20.5826 16.6509
CA -13.2675 -5.92002 81.376
CA -9.2465 30.9845 45.7296
CA -25.8854 11.3537 47.9049
CA 9.80588 -14.8507 46.2935
CA -25.5882 -5.41953 64.1987
CA -24.7216 11.6659 57.5492
CA 3.67936 -18.2067 57.8356
CA -50.4815 10.0675 38.92
CA -15.9948 -7.02056 68.2451
CA -33.5979 -9.03078 60.873
CA -13.6689 9.04608 22.5791
CA -13.9563 30.7527 18.8184
CA -20.4885 16.4432 41.8598
CA -32.8373 13.267 35.2272
CA -11.5245 -6.42745 80.3927
CA -17.3167 9.1986 24.9064
CA -21.1374 11.562 75.5504
CA 14.099 -15.439 41.5335
CA -42.6383 1.90979 54.935
CA -10.4187 6.18748 64.9117
CA -6.07204 -3.81703 82.9968
CA -17.686 17.5442 47.0436
CA -22.8143 16.9255 36.5252
CA -14.4699 -5.99494 74.3712
CA -26.9132 13.7889 45.5223
CA -5.32674 -4.49772 85.7772
CA -31.9049 14.7805 34.037
CA -35.4828 0.455342 65.6395
CA -41.4534 3.26655 37.949
CA -19.8186 -2.74532 65.4085
CA -48.2446 -2.07922 40.7591
CA -20.3089 -2.37019 31.7327
CA -16.5686 -3.15139 62.7941
CA 7.1859 -10.3731 48.9818
CA 17.8937 -20.5644 63.1442
CA -19.5911 8.6286 64.4949
CA -11.5572 24.0888 15.0386
CA -20.788 -0.186098 33.5507
CA -12.0143 7.66184 60.9055
CA -13.4905 -3.70121 73.4977
CA -2.06421 -7.87136 87.1086
CA 0.912564 2.54414 20.0837
CA -15.9496 -1.19926 64.3403
CA -10.4353 16.6579 16.1843
CA -35.1493 21.2297 49.2628
CA -7.87573 -3.00899 31.5433
CA -21.8507 7.82753 59.7543
CA -40.1857 11.9089 65.0931
CA -22.774 3.01349 70.1622
CA -36.2053 1.73615 49.6265
CA -36.1887 6.54779 41.3332
CA -45.8124 8.18619 38.1862
CA -34.1849 0.395389 50.7328
CA 2.39073 1.05219 73.3688
CA -38.5437 5.82128 58.811
CA -6.69372 -0.726561 67.8712
CA -0.254468 0.251678 74.2329
CA -16.6753 5.5089 61.0254
CA -38.1546 -17.6509 56.9187
CA -21.5156 14.4251 27.4685
CA -36.4416 15.9648 56.42
CA -19.6503 16.6188 69.9772
CA -15.6662 0.885597 62.3169
CA -16.826 -4.20867 30.5394
CA -34.7839 -15.2334 64.9349
CA -9.80537 23.5853 32.5762
CA -10.5517 -4.25522 62.683
CA -17.8143 2.65989 61.3705
CA -31.2867 28.061 51.0353
CA -8.97904 -2.02798 66.3087
CA -7.65927 24.8103 28.8961
CA -43.2385 -2.24354 58.4315
CA -23.1099 26.4246 33.1317
CA -38.4351 -9.752 63.377
CA -14.0807 24.8836 50.6173
CA -0.203945 -12.7338 47.7379
CA -24.9872 8.10637 47.4977
CA -20.684 10.128 24.0602
CA -42.9047 -7.13226 52.3395
CA 2.40553 -11.0052 43.8734
CA -22.0156 14.1353 54.7238
CA -29.0409 -3.9614 66.424
CA -10.8284 4.347 36.1411
CA -19.1939 17.0324 71.6994
CA -37.8937 -2.53537 51.6309
CA -39.7422 2.61977 36.2844
CA -15.7169 9.78964 48.9859
CA -27.1895 27.1173 51.6379
CA -3.39346 -0.321297 71.0285
CA -12.7225 23.4001 50.7501
CA -25.2478 19.3141 22.8952
CA -55.0303 -8.30222 39.9669
CA -18.0782 15.7136 73.5693
CA -31.7375 13.681 52.7892
CA -33.0155 17.3659 38.7575
CA -22.0718 20.8767 11.2607
CA 3.60055 -15.1093 50.8686
CA -19.0032 -2.69012 60.7844
CA -16.7086 14.4322 50.2521
CA -15.0226 -5.12707 76.9132
CA -17.5728 1.09552 29.7393
CA -21.1683 -4.8129 70.456
CA -5.60592 23.6923 16.8374
CA -13.3876 2.7165 76.0368
CA -11.9958 5.36956 33.1254
CA 1.76567 -1.73646 66.1882
CA -34.722 5.30253 40.509
CA -21.7211 24.8996 14.9403
CA 2.69841 -4.77339 61.3577
CA -3.70679 11.1525 13.6665
CA -47.3775 3.32016 45.3925
CA 4.78008 -9.13423 57.6566
CA -18.4376 2.90544 58.8208
CA 0.493134 -1.89968 68.372
CA 16.3761 -15.0481 41.6201
CA -21.4773 22.1815 14.2972
CA -21.5317 -0.278246 65.4587
CA -15.7641 -2.38114 40.0823
CA -29.3721 -19.811 61.874
CA -16.7659 -0.927972 53.6709
CA -38.8824 4.15696 64.9736
CA -27.4256 11.4789 61.3346
CA 0.917171 1.90398 22.1286
CA -45.9877 -3.73513 39.7298
CA -10.374 33.5657 18.7678
CA -20.7133 13.0913 74.6599
CA -16.1012 -6.50529 71.433
CA -33.2044 12.5677 57.6255
CA -13.5841 20.7758 48.5725
CA -3.61713 1.88486 68.8923
CA -23.0449 -5.1053 54.3113
CA -50.3537 -0.430774 46.7274
CA -14.0578 3.70704 39.2137
CA -35.8268 -1.24743 48.2694
CA -41.4462 20.9776 71.3765
CA -11.7643 2.87428 72.5992
CA -42.6538 2.86505 50.9699
CA -31.1804 -4.84903 64.903
CA -36.5764 -10.4097 59.601
CA -15.3854 19.0588 59.3825
CA -15.9746 -8.92893 69.8346
CA -12.4162 9.59603 65.9514
CA -19.9573 25.0695 34.7871
CA -34.0249 -13.1026 58.39
CA -18.3419 4.89019 50.7384
CA -3.70328 2.82514 19.0565
CA 10.3032 -2.13359 47.9158
CA -10.705 -0.687034 61.6932
CA 8.3294 -23.0428 58.5323
CA -23.9044 16.9092 28.3863
CA -20.5141 3.54342 62.3318
CA 5.38362 -21.0873 61.5755
CA -11.7258 3.24051 31.5894
CA -25.717 16.9633 33.4167
CA -31.4295 27.4197 55.9239
CA 12.0292 3.48941 69.8549
CA -21.9613 13.0842 18.0176
CA -6.01098 -8.11792 83.2715
CA -38.8973 7.10167 61.2105
CA -9.81232 -7.02597 58.5315
CA -34.4282 24.1695 66.1315
CA -16.8345 14.525 44.7619
CA -20.3552 4.09448 79.6933
CA -3.69508 1.04465 24.3176
CA -14.1971 18.1931 18.3149
CA -31.1143 0.3966 63.9673
CA -18.9045 26.5342 31.1488
CA -38.4378 1.04769 50.3784
CA -2.30118 -4.55013 62.8879
CA 1.01454 -10.7715 61.8104
CA -13.4311 -1.94967 81.6387
CA -13.2392 -2.68195 61.479
CA -16.7639 19.4096 56.4495
CA -9.62023 24.0311 47.5479
CA -7.71781 -7.90423 54.0909
CA -3.95721 5.15505 23.3678
CA -7.79003 36.5533 16.2968
CA 2.60225 -15.9193 64.0654
CA -37.9625 17.6967 56.8191
CA -37.6828 5.03858 39.8806
CA -10.4332 -0.898385 64.0178
CA -10.7111 -1.78966 79.435
CA -18.8252 14.1117 73.1239
CA -41.5541 4.05704 33.6299
CA 11.2769 -0.557005 70.8891
CA -22.6242 -6.88067 69.3987
