489

CA -45.3577 3.2716 41.3535
CA -15.5335 18.7486 13.4046
CA -9.41215 32.7141 17.4371
CA 9.98478 -13.1621 43.8994
CA -12.774 8.81115 32.9741
CA -24.921 22.1572 47.4002
CA -35.5188 -13.1165 63.6555
CA -21.7438 0.87101 57.0511
CA -11.4788 -6.88393 42.5557
CA -25.7346 -2.43485 66.3343
CA 7.02882 -13.447 61.4486
CA -18.291 3.22816 31.2352
CA -41.123 15.5602 56.4384
CA -32.772 19.4069 43.3938
CA -9.72695 25.5141 17.9303
CA -21.8341 9.27325 63.0308
CA -10.4585 -4.53116 36.815
CA -23.427 13.3681 76.2887
CA -16.3646 14.5035 36.951
CA -33.1374 -0.136366 52.5259
CA 6.5924 -16.7866 45.8986
CA -49.6313 4.25116 51.9445
CA -20.3489 23.5033 15.1364
CA -22.3415 4.65448 66.2709
CA -23.4439 22.3687 52.0252
CA -21.2786 2.81707 62.8468
CA -39.5351 4.38769 62.2019
CA -30.2793 4.03927 53.0613
CA 10.8851 -14.6132 41.7863
CA -12.8958 2.18441 79.6848
CA -22.0679 16.8253 34.1134
CA -12.0246 -3.64237 75.0294
CA -13.9492 29.5088 19.7959
CA -15.0145 -6.23126 80.2424
CA -26.0771 4.47167 64.419
CA -40.1924 3.88077 40.7116
CA -19.5711 1.3337 31.1673
CA -15.6211 20.417 22.9429
CA -11.7537 32.3067 23.0914
CA -23.9153 4.68609 67.9912
CA -16.1441 18.1036 41.3509
CA -22.2173 20.8695 56.5733
CA -6.71294 18.6641 48.715
CA -23.0546 -1.14939 61.2757
CA -21.0981 2.85036 39.8446
CA -38.4842 -10.1674 53.4053
CA -32.9425 10.6821 48.2215
CA -7.31996 19.4692 34.229
CA -38.1842 -11.387 57.2157
CA -23.3655 7.39018 62.3114
CA -34.5826 -14.5796 59.8004
CA -41.2879 12.2444 55.2721
CA -19.5565 32.1518 24.4857
CA -24.8971 -6.82451 67.3395
CA -8.9481 26.8999 46.5969
CA -21.853 20.3835 46.4369
CA -20.5844 14.6797 40.3681
CA 6.15425 -13.0681 53.3717
CA -36.2203 6.70147 65.7508
CA -35.0109 8.94622 34.9925
CA -30.1807 9.39392 34.9257
CA -19.2532 7.1735 60.5528
CA -21.0442 17.7023 45.9353
CA -3.48269 -13.713 57.3424
CA -10.4183 -17.6058 56.485
CA 6.3007 -3.32102 68.4284
CA -20.8353 2.17292 35.8022
CA -25.273 8.72799 77.0765
CA -18.5704 12.5345 38.6294
CA -14.622 1.05728 52.6111
CA -19.3555 9.00543 76.8509
CA -42.9261 6.61504 41.1944
CA -10.0637 -5.79138 85.5075
CA -29.9943 11.437 63.8989
CA -9.03353 35.5123 18.6349
CA -24.7659 -11.2023 57.4222
CA -13.5354 34.8002 18.0704
CA -55.9871 -5.44488 43.7691
CA -32.5199 33.8987 51.0101
CA -45.5816 0.297335 46.8327
CA -0.738654 0.814539 65.1176
CA -21.6332 -3.63235 57.2018
CA -30.3631 10.6821 65.6766
CA -28.6469 1.95603 56.1027
CA -8.64718 27.3237 39.0259
CA -27.2945 -14.7501 59.7305
CA -29.8684 30.0384 54.2313
CA -38.073 10.6783 66.065
CA -4.29637 -7.42916 58.2327
CA -8.15953 -9.49254 55.0364
CA -18.4236 9.33455 62.9041
CA -16.2154 14.4524 66.1374
CA -19.8479 29.6627 29.2482
CA -27.1237 3.27294 67.7176
CA -13.1519 21.6605 18.0936
CA -10.7949 4.05756 64.9284
CA -10.5631 0.329831 36.0154
CA -49.5698 -0.307307 41.6104
CA -21.8336 3.92689 64.2088
CA 7.80716 -2.45592 73.1662
CA -18.9149 4.01035 56.2106
CA -17.0913 29.6612 20.0033
CA -1.76898 -11.6847 60.5865
CA -34.1968 16.3345 58.2519
CA -35.1926 13.605 38.8124
CA -31.3076 12.4754 56.7205
CA -38.9195 2.08762 64.0285
CA -18.4049 0.909921 53.0612
CA 11.7232 -16.6751 61.0561
CA 10.4108 -7.03079 48.7623
CA -24.3524 -2.69331 67.5474
CA 0.674373 -13.05 45.9337
CA -16.7612 18.4746 71.7503
CA -9.23664 25.1473 36.9491
CA -41.6642 10.2888 44.7759
CA -19.1069 4.36162 28.6841
CA 4.09333 -2.17381 68.0755
CA -7.25082 24.0443 19.348
CA -22.5935 4.05912 75.3867
CA -5.98126 4.81727 35.0281
CA -19.8166 3.65312 59.5109
CA -17.4229 12.864 20.2963
CA -13.0294 2.93024 42.4926
CA 0.270532 -23.5442 60.7632
CA -23.45 4.63981 44.4481
CA -0.531861 -21.1716 64.5714
CA -19.8994 4.39745 61.7309
CA -34.8215 -9.11464 67.8058
CA -9.58319 -7.86307 54.7077
CA -15.0576 -4.64296 71.4212
CA -39.9915 -4.4806 68.9319
CA -20.625 19.082 44.8142
CA 11.4729 -16.5202 37.5273
CA -15.1175 17.0772 31.2549
CA -17.4748 6.65818 66.1904
CA -14.2407 3.93806 67.3896
CA -10.4649 -1.8161 81.49
CA -22.0529 -2.724 66.7851
CA -12.2471 13.6315 22.5252
CA -0.343617 -15.9182 47.7942
CA -17.336 11.1438 24.3453
CA -28.9403 3.20832 67.7452
CA -21.9503 4.72698 57.1825
CA -45.7176 6.46903 41.2482
CA -40.1863 1.44985 31.7083
CA -30.6906 23.1279 47.748
CA -34.6948 -4.96804 50.8255
CA -15.8632 12.4208 69.7306
CA -7.75092 35.3639 46.7768
CA -16.28 11.8405 64.5336
CA -39.0098 -4.69475 70.6534
CA -7.00013 -3.35794 64.7883
CA -20.7815 23.2209 19.2079
CA -47.4788 8.35768 36.0014
CA -12.3994 4.3675 28.5481
CA -36.4146 -1.91869 45.8211
CA -27.8466 23.4094 23.6213
CA -4.261 4.73522 72.6908
CA -11.7331 27.1636 38.6542
CA -21.0196 17.4155 40.7826
CA -31.5442 17.4845 41.8798
CA -13.999 12.6171 40.6857
CA -28.3488 -17.0804 60.1621
CA -29.2008 33.3587 51.1025
CA -10.5797 14.7781 22.4566
CA -20.4509 0.516693 80.2061
CA -5.55829 1.49267 79.0436
CA -39.8365 5.98125 38.3569
CA 10.8117 -10.4196 49.9482
CA -37.3887 19.2635 58.371
CA 2.61464 -9.84514 62.0056
CA -10.7154 5.72745 62.7127
CA -9.27707 7.4339 62.1352
CA 2.48232 -8.29795 60.9788
CA -22.0776 18.0826 39.3641
CA 3.55194 -14.47 48.2244
CA -18.5161 22.6512 12.814
CA -31.5761 -7.98587 58.4863
CA -20.5991 22.0272 33.5823
CA -16.7941 4.67961 29.7349
CA 9.45945 -16.5776 39.5899
CA -37.3063 14.6622 59.8049
CA -17.8262 7.11521 34.165
CA -41.9519 7.94003 42.3182
CA 11.6224 -13.8671 43.3026
CA -6.98908 16.0817 30.0394
CA -20.492 10.8939 74.617
CA -6.95858 -7.02063 65.5006
CA 4.57181 -8.37531 60.3344
CA 8.88464 -13.7372 40.6071
CA -26.8257 0.458674 70.5452
CA -21.7969 11.419 52.3389
CA -7.67944 5.00212 62.6551
CA 12.6243 0.885439 66.959
CA -10.9335 2.17335 63.5672
CA -23.794 21.5248 58.6786
CA -9.5817 0.886177 82.0547
CA -10.3071 3.75828 28.2531
CA -19.437 20.3535 45.7329
CA -37.7487 -5.83318 54.6988
CA -43.1142 14.2962 55.1865
CA 5.45376 -15.7734 52.84
CA -12.183 -0.296166 32.8214
CA -46.3113 11.3996 41.7973
CA -35.1099 -0.00856189 46.6773
CA -37.0772 4.94172 57.9333
CA -26.6823 5.37668 48.7348
CA -22.2623 7.20045 17.8223
CA -5.22805 23.1246 34.7611
CA -46.7444 4.77344 50.653
CA 6.3748 -7.08525 65.5005
CA -8.30092 14.6592 27.3059
CA -48.7179 6.32241 53.6567
CA -33.3374 29.8531 52.189
CA -33.797 10.4503 34.0833
CA -22.1793 1.0896 78.8462
CA -24.9215 -1.78715 55.8294
CA -41.4836 8.51163 38.7064
CA -21.5378 -1.13059 39.0667
CA -13.7232 -3.19399 64.3514
CA -30.0718 16.2096 46.2401
CA -37.515 12.08 40.1084
CA -19.2022 22.0892 20.0992
CA 0.052455 -15.6635 61.7079
CA -21.4183 15.7958 50.1409
CA -9.80311 -0.528316 63.3976
CA -11.7696 8.26211 38.6394
CA -19.6886 -0.480834 31.6162
CA -41.5961 2.46933 56.3431
CA -18.9167 0.510031 64.363
CA -8.80863 4.41124 36.6325
CA -18.5537 13.3869 25.7797
CA -17.9826 15.5144 46.3134
CA -14.1293 -9.70969 79.0814
CA -10.1209 37.4293 45.4656
CA 6.49028 -15.91 55.7606
CA -22.2021 8.14831 74.6191
CA -10.8562 10.4876 30.5228
CA -12.7043 25.1789 16.0082
CA -17.6352 28.0544 18.1885
CA 0.815065 -12.8846 19.2498
CA -39.8234 9.92939 39.5557
CA -20.7157 2.47957 77.9661
CA -25.2677 16.104 50.7359
CA 10.2718 -12.6374 51.4337
CA -33.6608 8.0133 64.7824
CA -42.5966 -9.78996 49.8589
CA -20.7148 9.17205 64.6195
CA 6.67419 -9.67263 62.3856
CA -13.3274 -6.18403 76.1952
CA -46.9508 8.60981 42.7284
CA -16.0632 16.0759 71.1128
CA -15.1693 32.2306 18.6381
CA -0.66587 -18.901 51.0806
CA -18.5377 -4.46159 70.9387
CA -16.4155 13.0151 40.1969
CA -4.76286 -17.3507 49.5867
CA -18.0868 15.4771 41.8904
CA -25.6068 -7.79998 69.0493
CA 8.74372 -2.34422 68.8151
CA 2.36309 -13.1135 43.4869
CA -50.2797 -1.14841 47.5001
CA -10.4917 -0.160375 74.0238
CA -28.9433 -0.105352 69.3435
CA -11.8516 9.08905 29.4737
CA -12.0265 4.98773 67.3126
CA -12.8291 -4.58414 73.3919
CA -12.6523 12.492 19.1153
CA -22.1586 7.63804 66.7347
CA -30.4222 24.0887 55.3018
CA -47.0265 2.17248 50.5354
CA -47.9288 7.15532 45.5864
CA -21.4995 3.57484 60.2959
CA -11.2999 2.21014 31.6528
CA -41.2729 6.31191 63.1604
CA -14.5798 -5.27621 32.8234
CA -31.5677 18.7486 45.99
CA -21.5324 26.3554 27.1103
CA -5.33574 -16.3482 54.1731
CA -34.5207 31.71 53.5714
CA -19.2815 -10.401 80.1949
CA -36.572 -10.4054 62.9458
CA -38.3682 -2.68471 48.1516
CA -14.9096 10.9974 60.428
CA -10.4535 23.9398 19.9169
CA -42.7067 6.0362 38.8566
CA -30.7346 33.7128 49.6724
CA -30.1015 3.70822 69.0901
CA -18.7866 5.03431 64.3779
CA -1.6383 -6.72547 62.041
CA 4.89903 -0.55679 71.1447
CA -25.7396 14.5273 53.2586
CA -40.6452 -0.16917 57.4836
CA -35.0069 15.7206 37.8885
CA -45.0692 5.37652 53.3634
CA -32.9283 15.2728 33.6681
CA -1.94156 -10.0102 18.112
CA -29.8466 -0.821728 55.6876
CA -5.78219 0.674277 71.0485
CA -10.2062 19.0105 30.2054
CA -21.8217 12.6594 22.5811
CA -51.1401 7.70226 42.0282
CA -4.65628 0.422136 36.9539
CA -22.8216 11.7942 50.6561
CA -26.6567 4.37813 76.6456
CA 2.59133 -6.95199 57.9593
CA -15.4095 -10.6979 80.5041
CA -23.7754 21.9921 31.9941
CA -38.1248 0.568225 48.0047
CA -15.1364 34.1768 23.3241
CA -40.4623 -8.76142 67.9204
CA -20.9 6.32655 75.7502
CA -8.54209 9.33385 30.8907
CA -22.7677 1.66276 63.7926
CA 10.3811 -19.8137 46.967
CA -9.65001 35.5474 45.7066
CA -32.8373 13.267 35.2272
CA -30.2082 -5.79614 63.5522
CA -25.6767 23.1386 59.8807
CA -8.29025 -0.544952 37.1557
CA -34.4791 2.38293 49.3474
CA -42.6383 1.90979 54.935
CA -43.7057 0.79566 40.5869
CA -31.0603 21.1846 45.8445
CA -17.686 17.5442 47.0436
CA -22.8143 16.9255 36.5252
CA 6.68492 -16.772 50.6507
CA -40.2847 3.68622 27.992
CA -14.1994 28.1756 50.6676
CA -30.94 23.2458 44.9777
CA -18.3286 -2.39168 59.9444
CA -41.4534 3.26655 37.949
CA -16.2311 23.3226 22.9826
CA -20.8458 -6.26223 79.6484
CA -41.0754 16.7257 72.9023
CA -18.6795 1.77771 66.0845
CA -20.9063 10.4511 17.6073
CA -24.3203 -7.42877 58.1523
CA -45.2901 13.2453 48.56
CA -11.5572 24.0888 15.0386
CA -23.5783 -0.137747 68.0482
CA 12.0314 -11.4797 40.1992
CA -39.2271 -16.5557 56.5373
CA -17.1359 5.78674 63.8942
CA -16.2524 31.7795 20.0466
CA -39.9335 3.80021 31.067
CA -15.9402 -0.673235 68.955
CA -13.2606 -4.22745 77.5422
CA -31.6086 5.47267 59.2543
CA -17.5222 16.9051 38.603
CA -11.9056 -3.01185 35.6362
CA -30.8286 3.20718 57.8163
CA -24.0868 -9.17545 55.6391
CA -36.1887 6.54779 41.3332
CA -45.8124 8.18619 38.1862
CA -11.9831 -18.7501 52.64
CA -30.0357 11.4954 59.3649
CA -38.5437 5.82128 58.811
CA -16.1808 1.34846 32.0215
CA -11.9119 -3.73546 31.3026
CA -20.4745 0.351637 82.2872
CA -54.1033 -0.810079 43.2975
CA -24.8674 13.8515 48.2819
CA -36.4416 15.9648 56.42
CA -3.02042 15.4399 48.3668
CA -3.37447 -10.313 56.9023
CA -28.7995 -4.01978 53.8882
CA -23.2791 1.55567 60.4693
CA -9.40412 -20.5524 50.5202
CA -4.61428 -17.5479 55.924
CA -8.30982 7.50892 35.2785
CA -28.0034 14.6154 64.7862
CA -8.54826 4.09017 61.034
CA -12.4558 17.4514 19.1778
CA -51.4234 0.123164 42.6879
CA 10.1542 -18.3294 48.3191
CA -19.1376 14.6363 23.8973
CA -14.0807 24.8836 50.6173
CA -11.2368 -14.2121 49.1036
CA -18.2668 14.3947 47.9605
CA -26.2034 16.7352 37.0543
CA -42.9047 -7.13226 52.3395
CA -27.8372 -2.60977 55.5838
CA -29.5403 26.572 56.9533
CA -9.45523 1.16811 77.228
CA -37.2199 3.03613 65.9652
CA -17.636 -7.31152 70.2737
CA -2.38288 -14.1359 45.4742
CA -32.9103 33.636 48.6219
CA -39.3194 7.4149 66.2966
CA 3.04339 -6.6109 64.8096
CA -44.37 6.52002 39.4444
CA -14.2961 24.4295 17.0877
CA 7.28014 -0.293643 76.7125
CA -7.6977 2.78669 49.2356
CA 3.34838 1.07348 67.0808
CA -31.7375 13.681 52.7892
CA -22.2551 -5.3888 66.3135
CA -25.2438 21.2059 59.7435
CA 3.60055 -15.1093 50.8686
CA -30.9389 19.9448 44.2683
CA -35.5265 -13.1939 60.9538
CA -48.9023 7.84981 38.4335
CA -17.5728 1.09552 29.7393
CA -25.2212 16.2941 44.4262
CA -39.4098 6.39228 63.9625
CA -20.5467 1.80812 60.744
CA -10.6569 29.9728 48.0961
CA -16.7239 14.2363 41.9298
CA -32.6819 -9.34644 64.6145
CA -6.5713 -8.85924 62.9541
CA -28.4602 14.0513 56.2632
CA -20.3583 -1.69727 83.8329
CA -47.3775 3.32016 45.3925
CA -14.3428 4.56372 58.7546
CA -12.2623 0.721351 34.7022
CA -20.2739 19.7692 36.7285
CA -31.1445 22.0024 55.9631
CA -16.1903 23.8545 19.6865
CA -23.3312 14.217 64.2574
CA -15.7641 -2.38114 40.0823
CA -9.52253 33.1023 45.476
CA -30.9006 21.92 57.9202
CA -27.0929 10.9266 62.524
CA -19.7659 12.1415 72.904
CA -51.8216 -3.77459 49.7222
CA 0.909985 -14.7383 66.0229
CA -9.44568 6.83557 51.0264
CA -6.93244 -16.8737 56.5657
CA -8.83305 -14.5694 55.5015
CA -33.2044 12.5677 57.6255
CA -13.5841 20.7758 48.5725
CA 1.69089 -21.632 65.5906
CA -13.1714 -0.642515 64.4397
CA -4.47188 5.18753 36.5381
CA -24.6463 -4.35867 57.0744
CA -35.8268 -1.24743 48.2694
CA -21.1211 17.4234 37.9863
CA 5.16899 -0.800425 66.4845
CA -42.6538 2.86505 50.9699
CA -19.0901 25.8653 14.4432
CA -41.0612 2.01716 33.4642
CA -10.9778 2.59102 25.3044
CA 5.1786 -7.39582 56.2235
CA -22.1434 10.3881 79.7137
CA -11.6934 -0.701035 36.9658
CA -27.1141 23.1068 61.024
CA -28.8294 3.44807 60.3385
CA -2.64235 -0.532287 67.4231
CA 4.98455 -2.76826 75.7017
CA -42.7739 5.42215 42.7332
CA 8.67801 -3.4943 51.2099
CA -23.9997 18.8905 58.8362
CA -8.64348 -3.82151 79.3761
CA -46.297 7.9033 45.7911
CA 16.5521 -12.369 42.657
CA -3.82513 3.30346 69.3389
CA -27.645 -3.86435 68.0831
CA -30.5618 15.832 34.8736
CA -17.1166 31.5254 16.8263
CA -15.4804 6.74542 52.1601
CA 1.16457 -12.8428 48.2679
CA -4.0505 20.0955 38.4663
CA -16.0685 20.064 67.8236
CA -8.72454 24.5752 39.3863
CA -20.3552 4.09448 79.6933
CA -41.2617 10.5079 52.3456
CA 8.2783 -2.39629 75.1527
CA 6.04032 -10.4382 57.2805
CA -39.6264 9.66003 67.2351
CA -7.50553 -0.559745 33.9553
CA -41.6769 10.7355 46.6558
CA -7.95135 -0.431951 50.8843
CA -22.3882 31.7036 19.3794
CA -17.9809 5.02955 32.1381
CA -20.4701 13.7924 77.2241
CA -47.4905 7.46554 48.3954
CA -23.4402 22.2537 44.1257
CA -20.9856 25.8377 30.7448
CA -24.163 -16.1366 57.0221
CA 10.2552 -14.073 58.9348
CA -23.8133 2.9924 33.2631
CA -7.26394 39.6689 20.9087
CA -26.242 6.31014 65.2981
CA -19.7909 16.2182 38.8256
CA -24.5349 22.0775 53.4518
CA 0.0817477 -15.1843 63.5687
CA 0.837288 -17.8903 63.6818
CA -22.6242 -6.88067 69.3987
