489

CA -11.5959 14.3567 32.6236
CA -29.0416 0.872063 63.5353
CA 5.09835 -14.1684 61.5263
CA 9.98478 -13.1621 43.8994
CA -24.6959 -7.30719 73.6415
CA -19.6519 -0.243197 52.0182
CA -35.7203 9.26438 55.9706
CA -5.91579 -0.30574 38.5148
CA -23.3097 19.7803 30.2145
CA -42.7745 3.24612 52.3053
CA -19.0907 16.0684 68.8382
CA -19.9993 16.8354 71.3077
CA -11.6895 27.1401 16.5679
CA -29.5621 7.56487 69.778
CA -4.92949 -11.222 62.158
CA 10.1683 -12.5608 39.539
CA -6.04436 12.7564 59.5739
CA -5.02923 -19.9889 57.2532
CA -18.2535 17.095 25.8985
CA -24.53 4.84558 79.8135
CA -8.63558 -20.6583 58.8361
CA -51.1319 -6.68257 47.0381
CA -26.8714 23.7457 19.5475
CA -39.7174 2.78847 51.5225
CA -39.8129 -5.36317 57.4653
CA -42.241 -11.1547 51.3225
CA -19.6301 7.42126 68.6103
CA 22.3267 -12.8643 34.4388
CA -12.3429 10.9637 28.3047
CA -25.9519 22.5516 57.7254
CA -2.68847 19.4201 50.1257
CA -52.8316 -8.24477 49.6096
CA -15.3448 14.7858 68.2814
CA -17.7914 15.5665 66.836
CA -29.7642 23.4723 67.127
CA -31.6497 20.3403 49.6648
CA -11.3177 3.46502 33.4463
CA -36.7377 21.2559 63.7195
CA -11.7537 32.3067 23.0914
CA -12.6761 -0.439626 40.33
CA -36.4004 21.6886 48.7281
CA -52.1332 -2.6105 39.3236
CA -44.4483 -3.6977 47.5567
CA -23.0546 -1.14939 61.2757
CA -45.235 -7.11404 50.1124
CA -27.4869 13.1553 69.3224
CA -7.22275 6.44815 30.0721
CA -16.274 17.3633 38.1992
CA -2.17944 -0.726479 33.2375
CA -35.9509 9.65249 30.8849
CA -46.626 6.93134 43.3231
CA -34.2415 2.21858 40.2467
CA -38.7952 12.7306 50.4752
CA -29.9285 12.8059 58.8514
CA -8.96701 15.8738 58.109
CA -19.2611 3.43423 78.033
CA -7.73733 -18.6757 57.8338
CA -24.6958 -7.69519 76.0877
CA -36.2203 6.70147 65.7508
CA -5.71277 21.6739 55.008
CA 1.98905 -14.6069 46.6607
CA -17.0849 22.6571 22.147
CA -21.0442 17.7023 45.9353
CA -4.42851 2.68425 39.2485
CA -29.2838 0.890616 37.6948
CA -23.118 6.77554 64.956
CA -8.83613 26.9237 41.9809
CA -11.6288 19.1474 16.0433
CA -19.0043 6.5565 77.7853
CA -29.9708 13.1548 32.4247
CA -36.847 -4.03369 46.5965
CA -42.9261 6.61504 41.1944
CA -9.34201 28.6363 19.3088
CA -25.5929 3.36626 45.2951
CA -30.9714 21.8585 20.1613
CA -24.7659 -11.2023 57.4222
CA -23.0053 -14.6919 72.6395
CA 13.6832 -14.2689 34.3456
CA -31.7174 29.294 53.4546
CA 5.09137 -12.3308 46.9941
CA -44.6075 5.91069 38.5882
CA -30.383 17.5376 44.5663
CA -7.76544 -1.81303 73.5971
CA -1.60358 -18.2515 48.5074
CA -11.6483 -12.9322 80.3711
CA -15.0573 36.1695 24.2766
CA -29.8684 30.0384 54.2313
CA -38.073 10.6783 66.065
CA -34.6738 24.1616 63.2718
CA -27.22 20.3203 21.6901
CA -5.40927 -1.35636 40.1257
CA -42.8241 3.95179 48.6189
CA -19.7436 14.3408 29.6466
CA -40.0904 10.4769 68.6331
CA -2.97777 0.148801 36.7173
CA 7.50043 -3.54163 66.5612
CA -32.7644 5.60764 41.6007
CA -49.5698 -0.307307 41.6104
CA -16.0974 13.3104 65.4436
CA -39.6858 -1.10964 58.6141
CA -41.8224 10.7897 67.1918
CA -0.167387 14.8942 51.2254
CA -14.9564 -1.88901 52.0117
CA -31.7198 15.4884 28.8463
CA -39.3449 4.2069 41.042
CA 1.74904 -15.686 65.0321
CA -19.4329 11.2698 64.036
CA -15.8682 3.38631 78.3224
CA -19.3595 4.67131 39.0061
CA -16.683 15.048 33.1009
CA -31.0201 10.1963 65.651
CA 0.674373 -13.05 45.9337
CA -44.8166 1.57239 52.7582
CA -22.2918 20.9126 32.2929
CA -13.8458 6.89859 60.2845
CA -12.6754 17.6618 64.1827
CA 4.09333 -2.17381 68.0755
CA -14.8929 3.54012 51.2655
CA -49.0021 -4.69319 42.5696
CA 20.7045 -12.0811 35.4955
CA -2.22596 15.5865 42.2105
CA -41.5857 5.37944 52.3294
CA -31.0244 22.9702 42.2927
CA -11.0274 -8.3608 82.1146
CA -32.7702 -8.05453 72.76
CA -1.81993 -15.8853 15.7914
CA 4.10667 -21.1875 49.8139
CA -15.9514 25.7826 52.585
CA -42.7775 5.13548 31.3629
CA -20.5799 -9.6384 54.9056
CA -11.3081 -0.929275 32.6778
CA -15.0328 13.332 70.1644
CA -24.9048 4.98547 27.9307
CA -25.6038 -15.2197 59.523
CA -41.6931 2.22218 41.7972
CA -27.2445 -11.6242 74.056
CA -44.371 3.5588 30.1345
CA -27.4267 -8.85361 54.3128
CA 5.74607 -17.7106 58.9692
CA -17.4409 4.76929 80.1474
CA -26.0849 -9.0009 68.1592
CA -24.9204 5.15684 40.3525
CA -21.9503 4.72698 57.1825
CA -14.2415 -7.1223 75.6076
CA -6.76878 16.8241 61.4494
CA -17.9628 4.69622 70.3527
CA -41.7988 4.57767 50.4378
CA -12.0118 -6.60911 82.6114
CA -7.86279 1.34213 31.806
CA -41.5043 0.0159494 60.0106
CA -31.9524 6.34609 56.0777
CA -6.19394 21.1389 37.7415
CA -40.0743 -2.75902 53.9864
CA -21.7738 5.2714 81.7051
CA -39.8115 11.0288 31.0953
CA -0.0527065 11.8478 43.6239
CA -43.8053 5.32615 56.4679
CA 15.4413 -14.1954 33.6634
CA -34.2355 5.62493 55.6268
CA -33.5273 22.4212 65.1933
CA -9.17422 22.2017 50.0574
CA -21.4752 3.84811 28.6749
CA -8.61526 16.124 16.1647
CA -9.94662 4.21698 39.8301
CA -43.4665 6.19562 26.7622
CA 17.7377 -11.0309 37.697
CA -31.2998 9.29302 54.7942
CA -10.4318 -23.1455 46.1705
CA 11.8169 -1.77711 66.5427
CA -17.1265 9.91261 53.156
CA -38.2886 18.9738 59.4207
CA -16.3307 -3.15241 53.3013
CA -15.6728 0.603661 38.1787
CA -27.9927 8.36724 59.817
CA -28.111 8.37719 64.3301
CA -20.9535 -5.84082 58.8309
CA -24.7677 19.7447 38.1366
CA -1.68512 -14.062 65.1675
CA -40.1149 12.4657 53.0845
CA -46.043 5.54501 28.4246
CA -14.6834 25.7066 15.0977
CA -20.9874 17.7812 64.5156
CA -38.4514 8.77777 40.9493
CA -21.9065 7.57852 76.1952
CA -39.7165 10.5385 36.7473
CA -18.2482 2.61569 52.1744
CA -10.8878 20.7612 20.644
CA 2.45979 -12.2269 62.5658
CA -14.7278 -4.22377 30.5187
CA -47.2765 -5.59427 49.0818
CA -43.047 11.7702 51.4329
CA -12.104 -0.795556 74.4034
CA -50.9853 -3.91209 42.6112
CA -8.74682 4.12163 36.5914
CA 1.97386 4.31274 61.4032
CA -15.502 -8.65546 75.7852
CA -33.4591 16.8211 59.3543
CA -0.113221 -17.0749 48.9241
CA -19.7981 17.0694 73.56
CA -27.1476 16.2768 45.6108
CA -27.7187 -7.60321 72.7822
CA -19.9981 0.370567 62.8267
CA -20.0277 1.41079 37.0772
CA -37.4532 2.3936 48.6604
CA -25.2254 8.52536 52.1649
CA -28.1435 -2.49405 64.1278
CA -25.0062 4.43551 56.3812
CA -35.7583 18.9936 43.7961
CA 16.9405 -13.5502 38.1473
CA -13.9555 -6.07338 28.6876
CA -15.2545 31.5309 27.0601
CA -8.30092 14.6592 27.3059
CA -12.924 0.591753 79.0603
CA -23.2962 -18.6375 55.5587
CA -20.1226 10.0188 51.9174
CA -17.1153 7.65146 78.5414
CA -6.12045 -22.3291 48.5488
CA -45.5701 8.96551 38.2114
CA -6.90265 5.14802 34.2972
CA -29.5437 24.0286 43.5957
CA -2.19969 3.50449 75.9683
CA 7.75263 -8.49909 60.3171
CA -17.968 8.72595 75.4926
CA -25.7899 9.39753 59.6735
CA -38.374 3.15791 55.6737
CA -5.29975 28.644 45.7432
CA -6.35621 28.2625 41.6578
CA -47.1676 6.13944 46.5626
CA -3.30486 17.4936 32.4917
CA -4.07037 13.9063 47.7183
CA -20.3266 4.31213 60.479
CA 7.47087 -14.358 53.3168
CA -28.3755 21.6664 55.0267
CA -39.1705 8.90157 35.3719
CA -25.4019 -12.6228 78.9
CA -24.3691 28.4918 67.0521
CA -31.6661 25.567 55.1831
CA -26.8068 14.4354 37.8019
CA -18.9226 5.31368 31.7571
CA -17.6352 28.0544 18.1885
CA -51.4475 1.09288 38.5446
CA -6.00713 22.7186 21.9669
CA -47.7104 5.82845 58.5878
CA -7.88197 20.5434 19.3914
CA -5.44332 2.2244 72.9463
CA -24.3507 -17.79 58.5096
CA -4.8808 -21.2162 54.7578
CA -17.2255 11.0205 19.838
CA -20.7083 13.5969 23.6173
CA -30.1638 10.6168 55.7863
CA -15.9458 3.03059 68.4098
CA -18.8125 10.707 53.6765
CA -9.54289 11.455 30.3772
CA -40.7518 2.93267 54.21
CA -31.429 17.2988 54.9139
CA -36.2131 4.52902 51.2462
CA -30.8035 -8.85073 53.3362
CA -20.7769 -2.6262 62.1247
CA -13.7105 -15.3085 44.2028
CA 1.5236 1.93135 62.8854
CA -7.16928 -20.2207 51.3413
CA -2.84801 20.5457 46.1346
CA -8.04371 6.2531 35.6784
CA -26.9067 26.019 20.5341
CA -7.18736 -2.95222 78.7461
CA -33.4412 4.90836 63.505
CA -18.8385 27.314 16.4905
CA -23.8915 -14.4616 54.9305
CA -23.2066 2.68283 81.5676
CA -15.4077 18.9907 19.1088
CA -19.0826 -14.7382 54.0256
CA -20.2708 29.2332 16.5708
CA -13.1195 -12.2442 46.2697
CA -4.46252 -18.5387 58.8658
CA -16.2667 7.7952 57.3453
CA 23.7143 -8.81327 32.584
CA -31.5677 18.7486 45.99
CA -39.5914 1.75122 47.9242
CA 3.18645 -15.691 51.0621
CA 11.5027 -14.428 39.5656
CA -21.317 27.3995 16.2517
CA -36.572 -10.4054 62.9458
CA -38.3682 -2.68471 48.1516
CA -14.6388 -0.247477 39.7299
CA -53.5831 -5.47645 47.0569
CA -30.8762 6.28929 57.707
CA -55.8067 -6.21103 51.8141
CA -11.9796 6.05746 30.6163
CA -39.4353 4.57719 60.4681
CA 11.2018 -14.9747 57.6118
CA -15.1254 3.53973 70.7338
CA -12.3455 4.77285 35.6849
CA -21.3403 15.1949 22.4529
CA -17.35 -7.03381 67.1563
CA -26.8953 11.6731 57.6378
CA -27.3575 -14.7325 79.4794
CA -52.8896 -5.21792 44.4509
CA -11.0351 17.932 23.4638
CA 0.688277 -0.381421 65.7029
CA -6.08234 16.5568 45.8759
CA -31.5574 11.3983 61.6268
CA -26.4986 13.6296 33.4671
CA -12.6049 11.5556 19.6727
CA -17.5651 20.0626 21.5721
CA -21.851 13.9437 70.1575
CA -16.8002 0.385876 66.5388
CA -10.1298 5.39736 30.1445
CA -50.5562 -5.8123 42.3221
CA 2.41961 -2.74332 63.1525
CA -37.7651 11.7595 42.571
CA -12.2681 15.5109 67.8929
CA -37.05 16.5724 42.1881
CA -10.185 15.5077 59.8069
CA -43.7552 -2.41109 55.8613
CA 1.44939 9.80718 47.2864
CA 2.5058 -14.8799 67.0891
CA -31.7556 9.57577 68.7868
CA -30.2082 -5.79614 63.5522
CA -30.3172 3.21641 37.8781
CA -19.8265 -5.06273 62.4431
CA -22.3259 15.8452 70.0886
CA -16.3581 11.2651 73.233
CA -27.3652 -7.80529 69.9728
CA -17.2386 5.99798 29.6319
CA 1.52835 -10.8762 64.7177
CA -51.7594 -3.80628 45.1606
CA -14.3781 11.2385 30.9892
CA -43.0894 14.9717 57.9763
CA -23.9967 17.9953 30.795
CA 3.89186 -5.22996 67.4368
CA -12.604 23.4527 51.7647
CA -33.532 5.03995 52.3462
CA -49.9046 6.25056 58.5963
CA -4.00237 12.2512 52.0991
CA -32.3632 7.58434 53.9697
CA -7.09531 19.2051 59.0127
CA -10.2848 4.31129 71.7372
CA -43.0297 -5.14894 48.4705
CA -6.37443 -2.24786 37.7622
CA -19.6721 20.1595 29.4655
CA -21.3333 4.34542 68.6755
CA -18.6691 14.0897 18.2936
CA -12.6112 4.4055 69.0417
CA -41.9936 6.77654 45.9803
CA -9.95624 19.2865 33.8464
CA -17.4607 16.8434 23.7018
CA -15.9402 -0.673235 68.955
CA -44.0951 12.1539 54.7747
CA 0.439184 -19.4495 61.2008
CA -21.4705 7.03849 82.3032
CA 4.65361 -8.05459 65.3025
CA -31.0379 25.1976 58.5868
CA -37.5022 6.44077 61.8282
CA -19.4033 9.53952 60.5153
CA -43.3022 4.40353 54.8345
CA 2.9056 -4.53185 65.83
CA -16.3672 6.3797 50.9688
CA 5.97042 3.63197 63.0455
CA -22.0274 7.62528 51.1287
CA -27.9645 -9.57216 72.6441
CA -22.0391 15.7264 46.2081
CA -26.525 3.3632 68.217
CA -4.61989 15.5982 46.3054
CA -1.96582 15.6742 44.4883
CA -27.0995 15.7958 66.2514
CA -8.71784 18.5864 16.7049
CA -39.977 -6.51804 46.8672
CA -23.4706 9.11803 61.1386
CA -22.6975 23.6002 17.7213
CA -5.10672 20.8811 52.1057
CA -44.6534 3.91981 39.7236
CA -28.0034 14.6154 64.7862
CA -29.2939 25.6276 20.2778
CA -26.6671 -0.554365 65.1733
CA -19.8655 -13.4165 55.0132
CA -11.108 5.85644 56.7531
CA -8.01079 -20.2352 56.1931
CA -9.18384 -1.86745 33.8659
CA -11.2368 -14.2121 49.1036
CA 4.8499 -16.6118 60.212
CA -4.88704 -17.6987 60.9313
CA -13.9352 3.15226 82.9592
CA -19.3862 10.074 56.258
CA -0.127791 -22.0728 52.7368
CA 7.25153 -6.85729 61.6052
CA 13.2808 -15.4508 38.4224
CA -9.65862 0.153851 76.1808
CA -44.9605 7.47626 34.6993
CA -21.5337 10.046 25.8688
CA -35.211 -10.5612 74.6663
CA 0.734596 -1.24204 62.3386
CA -37.6332 11.0536 31.4755
CA -16.4695 14.8778 15.0614
CA -18.7738 18.9671 42.7337
CA -14.602 33.7193 28.2044
CA -17.5311 10.2099 56.8807
CA -8.4494 -15.1822 60.5079
CA -12.3782 12.1294 68.4211
CA 5.05335 -23.2195 45.8132
CA -2.06268 -10.6607 61.2899
CA -9.32568 -3.67858 77.4133
CA -21.7622 -6.54412 65.3962
CA 3.52988 -8.05648 61.8969
CA -43.3284 3.39682 43.3357
CA -24.1366 1.89905 63.4173
CA -18.5601 17.7424 72.399
CA -9.0693 7.07869 33.5088
CA -1.11696 22.1747 46.0921
CA -2.43251 11.4708 47.7486
CA -28.1923 22.7373 41.8985
CA -17.7449 -7.49442 62.3515
CA -10.9789 31.2194 19.8302
CA -45.3593 2.18487 26.8896
CA -40.1469 3.55009 45.0362
CA -15.8171 33.5429 25.8191
CA -15.1262 -2.62619 70.2678
CA -0.0380415 -12.5645 61.5284
CA -11.8174 -6.27654 76.1852
CA -2.43051 -1.98194 64.112
CA -22.2841 29.955 18.5273
CA -12.0758 -18.8874 44.6191
CA -41.1697 0.522183 44.0978
CA -7.95265 25.7693 13.824
CA -4.42384 21.6125 45.2722
CA -25.6797 18.1876 35.4664
CA -11.3497 23.1856 40.8708
CA -23.5631 5.8089 81.2717
CA -20.1997 3.64159 80.968
CA -25.568 15.4926 57.1536
CA -25.2434 26.9082 66.8652
CA -16.0085 24.103 20.8392
CA -32.3782 -7.79109 65.9655
CA -43.6297 6.70139 28.9997
CA 3.24448 0.0262129 61.9182
CA -40.9761 -7.0443 54.0227
CA -2.28486 0.69714 68.845
CA -37.6066 8.46673 42.897
CA -13.9259 9.18165 57.7511
CA -18.4584 -1.86231 64.9502
CA -12.3449 17.5148 72.7599
CA -16.1024 30.5343 28.8803
CA -4.07485 32.1644 44.4569
CA -32.5792 -5.94327 71.1552
CA -4.52415 13.3823 50.586
CA -18.3032 3.31245 65.0635
CA -30.7183 -4.12114 73.9082
CA -27.1141 23.1068 61.024
CA -13.6753 7.32254 57.5529
CA -35.1714 5.82624 67.5809
CA -39.2681 7.58789 61.5613
CA -42.7739 5.42215 42.7332
CA -41.251 -1.20597 57.632
CA -24.0607 -11.6263 74.684
CA -23.2866 14.8062 24.8026
CA 5.54153 -15.4491 44.1804
CA -1.75144 25.329 46.2011
CA 1.92451 -19.3376 62.6075
CA -36.0415 18.2127 62.0355
CA -8.05974 26.8716 19.9229
CA -5.32659 20.6527 49.4735
CA -19.8934 -1.07365 40.6141
CA 5.82473 -13.7325 44.7799
CA -42.5172 18.7603 60.9552
CA -13.2696 -10.9379 79.6792
CA -19.1726 -3.01287 60.8648
CA -9.41426 12.1747 62.397
CA -38.1036 12.6448 46.1245
CA -28.1601 7.68894 53.3583
CA 6.04989 2.82173 67.321
CA -10.6043 14.1822 66.7389
CA -27.9638 20.2384 43.5155
CA -5.63431 24.5349 18.278
CA -34.9678 15.8966 41.9977
CA -29.4684 9.11454 54.2412
CA -4.73268 17.4538 61.0846
CA -18.68 1.06279 53.021
CA -15.3722 21.6121 70.594
CA -23.4402 22.2537 44.1257
CA -16.4954 19.6656 68.6591
CA -30.1738 19.161 43.772
CA -13.9253 -1.68871 77.4376
CA -18.8147 17.9103 21.6672
CA -31.569 -0.0804467 66.8877
CA -10.1986 34.1245 19.9847
CA -11.205 36.232 20.3043
CA 3.77982 -8.95534 60.2396
CA 2.36083 -17.0107 49.4271
CA 0.837288 -17.8903 63.6818
CA -11.5533 7.78199 29.2022
