489

CA -9.71585 12.4925 26.8584
CA -28.2448 5.03571 50.948
CA -10.6355 12.2706 25.0661
CA -16.7068 -6.9394 76.3485
CA -41.1622 1.66382 27.0838
CA -13.4241 -1.09641 34.6531
CA -30.3238 7.02492 60.839
CA -39.0196 6.22816 30.1745
CA -37.0794 12.7308 39.7323
CA -3.34423 -16.7541 55.4301
CA 6.78871 -8.80384 53.3851
CA 1.4494 -13.3292 56.0395
CA -7.09108 22.0879 22.6167
CA -17.1982 28.0613 17.0744
CA 2.66192 -9.84524 47.1476
CA -30.3006 10.9386 63.7509
CA -6.04436 12.7564 59.5739
CA -9.63203 16.4386 23.1001
CA -19.2701 -0.285532 64.07
CA -15.6439 11.8601 52.8788
CA -8.63558 -20.6583 58.8361
CA -35.4006 9.23514 56.7355
CA -26.8714 23.7457 19.5475
CA -35.508 -0.830074 60.4142
CA -23.9863 10.4362 31.0159
CA -47.5771 2.25023 26.9304
CA -34.4492 20.6632 61.3926
CA -14.2602 16.6402 69.4442
CA 5.71937 -9.10928 46.1201
CA -11.3867 20.1338 55.7334
CA -40.2751 4.22074 67.1704
CA -43.3648 19.9367 61.5287
CA 3.38585 -11.7479 48.6183
CA -17.7914 15.5665 66.836
CA -28.6551 29.4163 56.0013
CA -18.3413 1.23594 80.3567
CA -4.93134 22.5385 24.871
CA -32.4808 11.127 66.8096
CA -6.71792 -5.20348 75.7015
CA -30.6284 23.0302 22.6227
CA -36.4004 21.6886 48.7281
CA -17.7143 6.01651 74.8218
CA -17.6631 19.5724 19.8151
CA -29.5168 5.53923 31.003
CA -4.04895 20.2711 60.572
CA -43.6612 -3.61363 50.9885
CA -15.0351 5.5625 48.6933
CA -25.5855 17.1515 46.3027
CA -31.1106 24.6003 58.6044
CA -14.5683 -9.52797 77.0921
CA -1.45828 0.309644 63.8588
CA -45.1648 -1.31826 59.3101
CA -24.5095 7.19172 29.2102
CA -46.0052 -4.50001 54.1917
CA -36.4394 8.35644 63.9906
CA -16.9578 -11.2117 72.9306
CA -19.4713 33.5818 25.7217
CA -23.5737 6.48157 55.3104
CA -38.0031 1.01916 58.9165
CA -22.2928 16.3764 24.5395
CA 5.12894 0.711408 66.3912
CA -47.0467 8.47093 27.7011
CA -20.5879 7.58912 26.0297
CA -18.1728 -10.2012 71.6839
CA -50.7385 7.90353 55.7758
CA -9.58682 13.0843 64.5191
CA -12.0917 17.174 22.4092
CA -43.4546 13.9856 49.6182
CA -15.4316 -5.99566 77.4953
CA -21.3725 3.14141 47.8526
CA -13.9296 18.4195 71.7432
CA -42.9261 6.61504 41.1944
CA -19.2302 -2.41627 67.6963
CA -33.6277 9.81009 68.7182
CA -30.9714 21.8585 20.1613
CA -23.589 6.35723 52.7061
CA -45.5867 16.7214 52.4152
CA -20.9485 -4.2804 75.9053
CA -2.34918 21.6931 55.1465
CA -6.8491 0.274277 69.1418
CA -3.1619 23.7024 22.9791
CA -24.2681 27.0316 58.2649
CA -7.67189 -8.51988 77.5024
CA -14.4952 34.4624 30.4694
CA -16.3459 2.49968 71.4984
CA -32.0832 5.99315 67.746
CA -29.8684 30.0384 54.2313
CA -38.073 10.6783 66.065
CA -9.89624 8.20058 68.9266
CA -11.7548 5.42824 71.8863
CA -34.9359 2.36342 53.8675
CA -26.1803 -3.52344 62.5398
CA -15.6874 21.5576 68.0639
CA -30.9733 14.5879 67.2617
CA -7.9649 29.8833 18.8743
CA -5.33646 -11.6578 60.3796
CA -32.7644 5.60764 41.6007
CA -53.1097 -1.69463 43.7459
CA -28.9929 -4.018 67.695
CA -10.8082 4.5057 69.659
CA -8.48424 15.1246 25.0008
CA -0.167387 14.8942 51.2254
CA -14.9564 -1.88901 52.0117
CA -31.7198 15.4884 28.8463
CA -34.5669 -1.29732 46.1354
CA 1.74904 -15.686 65.0321
CA -28.3812 18.847 30.8638
CA -9.84596 2.54586 78.645
CA -23.7092 24.5755 57.0407
CA -18.5579 6.46414 81.7832
CA -31.0201 10.1963 65.651
CA -14.8998 10.5832 65.5591
CA 0.855983 -8.56549 65.1758
CA -37.1543 -2.00503 45.5274
CA -29.2742 4.34158 35.3834
CA -12.6754 17.6618 64.1827
CA -40.1665 22.0574 60.4397
CA -45.8718 7.23303 55.186
CA -16.6711 3.86624 77.3033
CA -20.7327 10.8188 55.3423
CA -23.5086 12.8886 46.1739
CA -30.0124 -11.6924 68.2071
CA -37.3088 11.0388 45.8644
CA -15.2603 -0.166906 47.8709
CA -32.7702 -8.05453 72.76
CA -48.5412 5.84148 62.0524
CA -10.3898 26.7946 16.8764
CA -13.5873 -8.06958 78.7553
CA -29.1319 16.1437 44.3915
CA -27.8126 9.63809 51.5229
CA -2.10899 24.1814 54.1474
CA -15.1909 16.0379 15.6869
CA -16.1494 10.5446 75.6634
CA -39.7823 12.6739 48.7873
CA -27.0918 8.70798 57.6859
CA -14.9755 10.5554 26.175
CA -43.6276 -1.51885 52.9562
CA -18.653 -0.85005 76.9651
CA 5.74607 -17.7106 58.9692
CA -20.7815 15.0779 70.615
CA -5.18062 13.7133 25.4167
CA -9.77143 27.2937 22.9337
CA 2.93282 -18.3093 63.5889
CA -14.2415 -7.1223 75.6076
CA -7.88414 34.8051 18.447
CA -12.5066 -5.51182 76.5603
CA -10.938 32.9511 32.0818
CA -38.7811 17.8415 67.259
CA -21.6828 -5.75669 68.1224
CA -11.1357 0.139218 36.102
CA -19.0585 -13.0549 72.8797
CA -19.2333 18.7932 75.9637
CA -7.64168 31.4021 17.511
CA -27.2052 24.368 58.811
CA -26.6374 12.9055 30.5007
CA -49.6241 0.842591 27.5505
CA -45.9795 -2.88546 57.0954
CA -15.2529 13.5932 49.4553
CA -43.4393 15.4415 53.03
CA -33.5273 22.4212 65.1933
CA -0.331193 -15.1859 68.7993
CA -2.81046 -6.53133 65.9358
CA -25.3969 19.583 35.7139
CA -9.94662 4.21698 39.8301
CA -43.4665 6.19562 26.7622
CA -20.3755 -8.93607 69.5479
CA 2.04623 12.5261 43.7047
CA -6.15076 20.9524 42.3628
CA -38.0567 5.49916 25.8738
CA -18.1791 24.7141 66.0754
CA -38.2886 18.9738 59.4207
CA -25.3137 5.41444 65.3325
CA -22.5515 -17.9632 47.0257
CA -23.1329 7.20435 24.8427
CA -5.78203 -17.9943 58.8022
CA -14.3282 16.3511 52.6245
CA -5.84381 -7.88602 68.7068
CA -25.6708 15.1191 40.4812
CA -23.0945 -15.572 50.871
CA -46.043 5.54501 28.4246
CA -14.6834 25.7066 15.0977
CA -15.7986 15.2988 70.7386
CA -25.0425 18.6253 44.0867
CA 2.32858 -22.4085 67.424
CA -28.0917 1.85491 57.4816
CA -19.9592 0.0731626 72.3975
CA -44.3064 13.895 52.6047
CA -0.457973 -19.349 72.005
CA -21.8488 16.7245 42.5193
CA -4.11476 10.596 63.6976
CA -20.0034 -17.5477 46.9023
CA -26.5768 -5.77984 66.5019
CA 2.8924 -9.7723 60.7501
CA -14.8003 29.8512 22.5808
CA 1.97386 4.31274 61.4032
CA -31.8102 26.4466 56.7891
CA -33.4591 16.8211 59.3543
CA 6.08177 13.5725 50.5977
CA -22.9711 16.7116 34.7497
CA -27.1476 16.2768 45.6108
CA -22.887 1.51158 59.8976
CA -9.11428 11.0554 54.1598
CA -20.0277 1.41079 37.0772
CA -7.44591 28.8926 20.6987
CA -32.8127 3.97946 48.3159
CA -28.1435 -2.49405 64.1278
CA -20.9045 12.8022 55.0589
CA -33.6276 11.2808 54.2751
CA -2.10832 -18.2202 54.2751
CA -20.2446 4.22361 63.8978
CA -22.8538 -8.42148 61.0985
CA -33.8602 -2.30816 49.4403
CA -21.8816 29.5339 59.8563
CA -13.4824 5.70092 37.4524
CA -9.0575 6.01608 33.5882
CA -20.3503 9.64114 52.2115
CA -1.40963 -11.7903 63.4677
CA -45.5701 8.96551 38.2114
CA -14.8182 26.9026 18.6529
CA -19.2782 6.3212 22.5346
CA -34.0822 1.57511 65.8701
CA -5.41197 18.103 20.1156
CA -17.968 8.72595 75.4926
CA -39.4925 17.8269 64.7169
CA -25.6219 13.4176 36.9977
CA -21.2431 7.65643 22.5639
CA -10.6575 -1.45058 55.0713
CA -38.1586 -0.0639585 61.2306
CA -21.7245 -11.5265 55.7634
CA -21.1449 -7.13034 70.0066
CA -20.4291 23.9615 37.3385
CA -25.1477 1.53457 59.4588
CA -32.8987 24.6949 55.2524
CA -13.517 17.0376 48.7557
CA 8.44568 -14.5645 46.7542
CA -14.0538 29.4975 26.7813
CA -34.79 7.0211 56.6016
CA -1.29994 22.9623 22.3402
CA -13.8672 32.2963 34.3394
CA -14.9167 7.34216 29.8537
CA -23.2845 31.8446 57.0134
CA -8.47623 16.9682 57.0056
CA -30.2299 10.5407 60.2907
CA -50.0272 -3.01202 53.6929
CA -5.44332 2.2244 72.9463
CA -22.8476 0.052211 57.4411
CA -14.8286 3.579 71.4788
CA -13.3024 -4.9959 34.6419
CA -18.9207 -8.32907 56.0759
CA -30.1638 10.6168 55.7863
CA -5.82256 -10.5327 61.9038
CA -33.5669 8.96348 64.5554
CA -51.7904 7.25499 62.5263
CA -11.6103 12.9892 67.3695
CA -29.8757 5.52563 65.5681
CA 4.94977 18.3662 45.5807
CA -24.7134 15.0021 34.573
CA -17.2644 -3.60039 62.1123
CA -6.29055 0.117257 37.5809
CA -14.6664 2.93404 56.4299
CA -7.16928 -20.2207 51.3413
CA -2.84801 20.5457 46.1346
CA -39.3938 3.3307 52.6223
CA -3.25948 19.1621 18.214
CA 1.91079 -15.0767 44.9431
CA -23.9203 26.6461 14.2053
CA -18.8385 27.314 16.4905
CA -23.8915 -14.4616 54.9305
CA -13.1401 31.5288 14.5954
CA -31.954 1.72128 48.594
CA -52.7539 -2.17144 51.5948
CA -6.14449 27.9791 39.0337
CA -38.0864 0.411053 48.0167
CA -21.6276 -11.8085 65.878
CA -16.2667 7.7952 57.3453
CA -25.8696 14.1685 45.1314
CA -18.9692 10.3594 20.5702
CA -39.5914 1.75122 47.9242
CA -29.0038 23.8729 23.1918
CA -31.3605 7.94574 59.4367
CA -28.508 -10.9668 75.7807
CA -3.02544 27.1626 54.5166
CA -38.3682 -2.68471 48.1516
CA -36.1232 15.9505 38.2142
CA -26.1136 0.0228838 70.4594
CA -16.2445 16.1508 19.4134
CA -23.1201 21.4097 31.6101
CA -11.9796 6.05746 30.6163
CA -18.0121 4.55764 67.2333
CA -7.60866 18.4242 39.3106
CA -4.27157 16.4078 50.8004
CA -30.6695 23.1846 17.6024
CA -21.3403 15.1949 22.4529
CA -31.9434 15.6948 68.5958
CA -25.5297 4.88264 52.9188
CA -19.2884 10.2783 49.1705
CA -31.2947 6.90771 64.4647
CA -14.6215 3.69301 76.2715
CA -18.7006 13.6814 74.9006
CA -40.4272 -5.77083 65.343
CA -22.8057 -0.20341 59.2845
CA -39.2961 1.16418 52.8258
CA 18.1553 -12.0005 35.6201
CA -11.5534 22.8865 16.2364
CA -22.1637 4.25774 70.6315
CA -16.8002 0.385876 66.5388
CA -44.1724 17.3069 63.5056
CA -41.5053 -1.90907 62.2333
CA -18.0954 10.2294 59.4688
CA -40.8448 20.3748 64.8893
CA -34.3277 20.625 58.6561
CA -46.4285 9.37936 55.3103
CA -16.4081 14.6067 47.2161
CA -43.7552 -2.41109 55.8613
CA -1.49028 -11.522 59.8721
CA -38.7368 19.0751 47.376
CA -22.5055 -12.8949 75.2241
CA -6.38199 17.183 15.869
CA -30.3172 3.21641 37.8781
CA -19.8265 -5.06273 62.4431
CA -21.7959 21.1741 37.7949
CA -35.8732 13.3943 64.9065
CA -40.9482 11.3194 41.421
CA 6.19747 16.0682 49.8923
CA -11.4101 -3.58125 72.6173
CA -18.7406 15.3737 68.7043
CA -36.4358 6.54665 43.5466
CA -1.80253 22.3678 51.0049
CA -46.8651 7.26844 34.3419
CA 3.89186 -5.22996 67.4368
CA -30.3327 10.0461 38.9813
CA -11.1898 -8.50695 78.2753
CA -12.1867 33.7996 30.2062
CA -4.00237 12.2512 52.0991
CA -6.95241 24.783 40.8265
CA -7.09531 19.2051 59.0127
CA -10.2848 4.31129 71.7372
CA -43.0297 -5.14894 48.4705
CA -6.28566 14.4289 27.3828
CA -25.0417 20.5679 41.6077
CA -12.1484 19.5382 68.2962
CA -41.0799 21.2038 63.0794
CA -12.6112 4.4055 69.0417
CA -31.4571 13.1181 56.4661
CA -22.5054 2.06442 62.3502
CA -14.4371 4.18732 35.5603
CA -7.55507 16.8579 34.8399
CA -37.0831 14.5561 46.5477
CA -39.5017 7.13192 50.988
CA -33.4825 22.0298 20.1428
CA -15.436 27.1713 28.6125
CA -41.7034 6.41951 44.1041
CA -36.3417 14.2098 39.0066
CA -27.4571 22.8904 38.0168
CA -43.3022 4.40353 54.8345
CA 5.64209 -1.09101 64.6392
CA -5.71612 -0.437844 76.4439
CA -19.8594 11.2816 52.8657
CA -47.6592 3.09312 61.6749
CA -25.0388 8.00626 58.3348
CA -22.0391 15.7264 46.2081
CA -13.4623 -6.68862 77.5783
CA -2.44125 -18.8088 50.0004
CA -44.3574 -5.5617 53.1572
CA -8.28258 27.8601 36.2498
CA -8.71784 18.5864 16.7049
CA -6.83255 31.1372 20.5371
CA -15.3717 0.418623 65.3955
CA -22.6975 23.6002 17.7213
CA -5.10672 20.8811 52.1057
CA -48.5188 7.37463 59.2806
CA -41.4797 5.55609 51.9303
CA -4.54393 24.4085 51.5724
CA -21.9797 17.2531 44.6817
CA -30.4092 24.9146 19.1086
CA -1.94492 -18.606 70.7634
CA -14.4166 -2.48116 68.4644
CA -17.9475 -10.101 66.6729
CA -30.8913 5.16852 52.099
CA 4.8499 -16.6118 60.212
CA -26.6437 4.44502 61.7933
CA -19.5476 16.7519 24.7617
CA -20.0108 16.0184 47.6858
CA -11.5794 36.6826 29.0571
CA -6.03667 -22.0762 57.0151
CA -16.1508 8.2996 19.1074
CA 1.34049 17.4847 43.3524
CA -44.9605 7.47626 34.6993
CA -16.9448 -0.0417404 75.4383
CA -37.6152 4.82406 67.4183
CA -13.1459 -1.38069 52.5532
CA -30.5899 3.6847 59.563
CA -29.6166 13.4697 34.2181
CA -20.9537 14.1208 45.8323
CA -14.602 33.7193 28.2044
CA -7.34952 17.2205 28.4794
CA -29.9767 31.1093 57.0067
CA 9.98552 -10.1711 56.1171
CA -21.8803 6.70286 65.9612
CA -24.6772 15.9945 50.4718
CA -17.7313 5.27669 56.9642
CA -21.7622 -6.54412 65.3962
CA -34.7378 17.8065 64.4305
CA -30.2773 -6.87849 70.9739
CA -28.7325 5.03584 67.8536
CA -42.9141 6.98564 49.8417
CA -24.007 22.5674 37.468
CA -5.92085 20.0002 19.4276
CA -17.9146 6.00302 49.0118
CA -8.04312 22.3546 19.4043
CA -26.2863 14.7628 33.354
CA -10.9789 31.2194 19.8302
CA -29.4524 2.5624 64.115
CA -40.1469 3.55009 45.0362
CA -15.8171 33.5429 25.8191
CA -31.0893 -11.489 72.6928
CA -20.1034 -15.7314 72.8151
CA -34.4313 0.180235 48.2731
CA -31.7136 23.1975 59.7492
CA -26.7089 26.8422 18.1198
CA 7.60931 -13.6184 56.2314
CA -19.1663 29.912 16.8154
CA -34.8236 2.04901 56.4031
CA -20.9264 -10.2612 68.2635
CA -40.6345 -3.08981 52.8396
CA -11.3497 23.1856 40.8708
CA -22.6219 8.51036 51.8555
CA -37.0597 3.51043 47.1203
CA -21.7891 8.84162 24.5457
CA -29.4966 13.9502 55.6207
CA 3.67773 15.8486 48.9986
CA -7.37951 11.2815 62.9728
CA -30.8228 -0.0673571 47.8782
CA 3.24448 0.0262129 61.9182
CA -23.6033 -16.3497 47.2754
CA -2.28486 0.69714 68.845
CA -37.6066 8.46673 42.897
CA -11.4023 -2.57977 38.0435
CA -8.58449 -23.2403 54.8605
CA -12.3449 17.5148 72.7599
CA -16.1024 30.5343 28.8803
CA -17.0429 9.42328 24.7436
CA -21.6657 18.136 23.9298
CA -32.9448 15.2168 46.2057
CA -18.3032 3.31245 65.0635
CA -34.9569 3.23099 52.1801
CA -30.2318 15.3359 48.4686
CA -30.3834 6.12969 49.2198
CA 0.390944 -15.7071 58.557
CA -2.36554 -14.7869 66.5488
CA -38.2855 13.3139 33.9455
CA -14.0391 8.55228 75.086
CA -24.0607 -11.6263 74.684
CA -23.892 4.18416 48.8876
CA -23.0144 11.0681 49.8168
CA 0.0139775 20.4302 52.0791
CA -9.24611 16.2675 59.2122
CA -13.3902 27.8458 15.4708
CA -20.1807 5.34248 67.2872
CA -22.57 16.4647 19.6269
CA -22.56 -14.1627 66.4781
CA 5.82473 -13.7325 44.7799
CA -41.1402 13.4926 45.5018
CA -13.2696 -10.9379 79.6792
CA -14.7669 -5.23147 72.8566
CA -17.9319 -6.53291 57.6992
CA -38.1036 12.6448 46.1245
CA -35.2824 5.55592 55.562
CA -12.8277 -2.4116 71.852
CA -7.23566 19.1592 30.7361
CA -26.7882 14.9186 47.8667
CA -44.8451 8.52364 30.2437
CA -33.4926 11.6957 61.6484
CA -32.2397 15.9998 24.1484
CA -4.73268 17.4538 61.0846
CA -31.9782 20.6195 66.1784
CA 6.14823 -10.1174 60.5316
CA -27.7395 19.9438 57.9722
CA -16.4954 19.6656 68.6591
CA 5.56029 -17.042 47.0439
CA -16.2799 4.75179 31.1512
CA -18.3105 7.67802 83.4219
CA -36.6277 -0.197265 55.3032
CA -22.8017 15.8255 49.1888
CA -37.674 15.5869 36.2035
CA -0.395702 -18.6748 67.8311
CA 2.36083 -17.0107 49.4271
CA 0.837288 -17.8903 63.6818
CA -12.6597 16.5796 26.438
