489

CA -9.71585 12.4925 26.8584
CA -47.0922 5.84038 56.9867
CA -41.9562 12.3006 65.4335
CA -16.7068 -6.9394 76.3485
CA -20.4632 31.3186 22.0334
CA -13.4241 -1.09641 34.6531
CA -30.3238 7.02492 60.839
CA -17.743 -4.72089 68.3345
CA -35.6083 1.55377 44.7485
CA -22.5767 16.7493 49.8036
CA 6.78871 -8.80384 53.3851
CA -2.57179 28.0593 53.7907
CA -7.09108 22.0879 22.6167
CA -28.7266 27.9171 58.6617
CA -43.38 0.244913 59.5791
CA -24.2253 14.2511 46.193
CA -35.5379 17.1841 39.6802
CA -26.0774 0.912843 68.7616
CA -19.2701 -0.285532 64.07
CA -23.0647 8.31687 26.6138
CA -37.9008 10.9967 64.0508
CA -4.87509 24.4745 22.1201
CA -26.8714 23.7457 19.5475
CA -5.89291 -16.4225 49.624
CA -15.4374 -6.45456 68.5337
CA -16.4432 -9.6731 70.7472
CA -18.7162 -12.0961 69.3409
CA -30.7466 16.7864 45.9986
CA -31.0071 28.593 56.7417
CA -46.8946 5.14757 30.4957
CA -40.2751 4.22074 67.1704
CA -43.3648 19.9367 61.5287
CA -5.37929 11.0223 28.3723
CA -17.7914 15.5665 66.836
CA -43.1122 -5.79197 56.3055
CA -18.3413 1.23594 80.3567
CA -7.70956 31.1559 32.5731
CA 5.94579 -19.8604 56.9765
CA -27.7112 14.7875 44.4971
CA -30.6284 23.0302 22.6227
CA -36.4004 21.6886 48.7281
CA -17.7143 6.01651 74.8218
CA -17.6631 19.5724 19.8151
CA -24.38 0.391334 72.5535
CA -34.6756 29.4284 58.0907
CA -10.417 28.4742 18.2522
CA -15.0351 5.5625 48.6933
CA -25.5855 17.1515 46.3027
CA -12.7585 13.7377 50.2408
CA -14.5683 -9.52797 77.0921
CA -1.45828 0.309644 63.8588
CA -45.1648 -1.31826 59.3101
CA -24.5095 7.19172 29.2102
CA -6.93507 26.9641 23.252
CA -40.0506 15.6211 45.4738
CA -16.9578 -11.2117 72.9306
CA -19.4713 33.5818 25.7217
CA -18.2653 4.94018 83.7025
CA -8.88692 -19.4782 54.1338
CA -22.2928 16.3764 24.5395
CA 5.12894 0.711408 66.3912
CA -47.0467 8.47093 27.7011
CA -21.5799 25.3388 18.8798
CA -20.4998 -13.1607 59.5855
CA -39.0505 2.5536 50.7705
CA -9.58682 13.0843 64.5191
CA -12.0917 17.174 22.4092
CA -3.8559 -23.7659 54.3941
CA -15.4316 -5.99566 77.4953
CA -21.3725 3.14141 47.8526
CA -13.9296 18.4195 71.7432
CA -42.9261 6.61504 41.1944
CA -28.3063 -2.09506 68.6158
CA -35.7888 29.9833 55.8067
CA -42.2087 5.38228 54.0162
CA -23.589 6.35723 52.7061
CA -6.91396 29.9023 37.1247
CA -24.6624 18.4904 52.1724
CA -2.34918 21.6931 55.1465
CA -17.3622 -13.0892 53.8321
CA -13.5355 8.74358 26.3769
CA -24.8979 18.068 42.2559
CA -5.1488 -13.8464 59.4693
CA -14.4952 34.4624 30.4694
CA -50.1512 10.6153 67.9232
CA -19.9301 23.6691 51.3586
CA -29.8684 30.0384 54.2313
CA -38.073 10.6783 66.065
CA -24.4159 0.168138 46.745
CA -1.95216 15.6438 54.7111
CA -29.9703 14.9753 26.7813
CA 3.71735 -15.2071 64.6078
CA -13.9885 26.4536 18.0905
CA -30.9733 14.5879 67.2617
CA -18.8544 -11.3182 60.3373
CA 2.27673 -14.3399 58.0427
CA -16.4801 20.9952 70.8327
CA -53.1097 -1.69463 43.7459
CA -11.4977 15.9191 62.8125
CA 7.07215 -5.96225 58.778
CA -12.1222 5.53592 76.2949
CA -39.0211 12.9626 64.1575
CA -45.9629 9.21253 34.0986
CA -13.9954 32.5361 27.689
CA -34.5669 -1.29732 46.1354
CA 1.74904 -15.686 65.0321
CA -28.3812 18.847 30.8638
CA -10.4448 20.1455 19.0618
CA -18.9751 12.5259 26.6814
CA -18.5579 6.46414 81.7832
CA -31.0201 10.1963 65.651
CA -1.47088 1.2247 66.6361
CA 0.855983 -8.56549 65.1758
CA -24.5425 -16.823 52.1694
CA -29.2742 4.34158 35.3834
CA -12.6754 17.6618 64.1827
CA -23.5366 15.7855 57.94
CA 1.11195 14.3971 43.7982
CA -18.4664 16.539 28.3122
CA 5.08689 -19.2187 49.2208
CA -17.6488 9.54584 78.2333
CA -30.0124 -11.6924 68.2071
CA 3.76748 -13.2483 44.8279
CA -15.2603 -0.166906 47.8709
CA -8.81627 14.5428 52.9093
CA -15.0906 8.57735 28.2837
CA -10.3898 26.7946 16.8764
CA 7.58828 -16.1867 59.5918
CA -33.7283 13.5526 35.6483
CA -17.3121 9.76716 80.1759
CA -2.10899 24.1814 54.1474
CA -16.6639 11.8302 78.6589
CA -26.9098 -5.93556 74.0027
CA -39.7823 12.6739 48.7873
CA -27.0918 8.70798 57.6859
CA -14.9755 10.5554 26.175
CA -16.9644 14.766 53.1971
CA -18.653 -0.85005 76.9651
CA -26.0068 19.4951 43.045
CA -37.5189 14.546 39.6239
CA -19.1181 10.076 23.0655
CA -9.77143 27.2937 22.9337
CA 2.93282 -18.3093 63.5889
CA -35.5794 14.6576 45.2453
CA -18.225 -3.43274 76.5849
CA -19.1043 10.2448 81.3298
CA -6.28459 16.3642 27.1179
CA -38.7811 17.8415 67.259
CA -0.930405 -15.1214 62.9164
CA -11.1357 0.139218 36.102
CA -41.0143 -0.439676 65.4434
CA -19.2333 18.7932 75.9637
CA -0.940137 -15.3409 46.0525
CA -19.3663 12.0994 49.9679
CA -32.231 23.7728 62.4462
CA -21.1657 26.8049 58.8966
CA -45.9795 -2.88546 57.0954
CA -15.2529 13.5932 49.4553
CA -43.4393 15.4415 53.03
CA -33.5273 22.4212 65.1933
CA 4.58537 -16.7184 57.3729
CA -2.81046 -6.53133 65.9358
CA 0.0325729 27.1558 53.1
CA -20.3005 25.6894 53.5768
CA -43.4665 6.19562 26.7622
CA -36.0315 4.83944 48.8571
CA -4.87351 26.1447 24.8927
CA -6.15076 20.9524 42.3628
CA -10.9191 5.61787 73.4144
CA -29.958 14.231 50.9951
CA -38.2886 18.9738 59.4207
CA -29.4413 0.635581 54.7262
CA -22.5515 -17.9632 47.0257
CA -23.1329 7.20435 24.8427
CA -5.78203 -17.9943 58.8022
CA -14.3282 16.3511 52.6245
CA -5.84381 -7.88602 68.7068
CA -3.32084 24.739 19.1643
CA -16.181 36.9919 33.0577
CA -46.043 5.54501 28.4246
CA -14.6834 25.7066 15.0977
CA -17.3818 27.675 30.5964
CA -8.0186 28.0985 17.9611
CA -4.27773 13.1358 27.6505
CA -28.0917 1.85491 57.4816
CA -33.7959 20.043 23.5236
CA 5.6562 -15.8065 49.3507
CA -15.9571 -0.122275 80.2392
CA -42.4723 2.61439 24.8187
CA -32.8821 4.91963 59.5357
CA -27.2632 5.68909 25.5378
CA -26.5768 -5.77984 66.5019
CA 2.8924 -9.7723 60.7501
CA -19.0436 -1.72311 75.0405
CA 1.97386 4.31274 61.4032
CA -31.8102 26.4466 56.7891
CA -33.4591 16.8211 59.3543
CA -13.8103 13.1407 48.1485
CA -20.7178 25.5431 56.012
CA -16.7623 -11.9846 70.8915
CA -18.3413 13.9182 67.588
CA -9.11428 11.0554 54.1598
CA -18.0323 -9.07179 72.2247
CA -14.9395 1.62841 72.144
CA -32.8127 3.97946 48.3159
CA -17.1291 14.828 23.9073
CA -17.8109 2.9313 74.3987
CA -33.6276 11.2808 54.2751
CA -18.8466 -10.8902 71.6487
CA -10.171 20.9481 22.8393
CA -27.4038 -8.01405 73.6843
CA -23.7084 30.324 23.7212
CA -21.6776 2.81203 54.5844
CA 0.765018 -9.00005 59.9935
CA -9.0575 6.01608 33.5882
CA -3.36019 27.0581 23.1203
CA -27.2851 9.76721 25.9866
CA -45.5701 8.96551 38.2114
CA -33.0176 13.1545 39.9007
CA 2.22623 -14.2832 49.0929
CA -25.1352 -12.9183 51.9299
CA -30.1224 26.5368 58.4072
CA -36.8467 -1.89057 50.8671
CA -39.4925 17.8269 64.7169
CA -30.9509 18.6894 26.3174
CA -4.27375 9.51187 65.8377
CA -10.6575 -1.45058 55.0713
CA -38.1586 -0.0639585 61.2306
CA -21.7245 -11.5265 55.7634
CA -25.0135 -17.9192 48.4696
CA -20.4291 23.9615 37.3385
CA -35.4246 6.0221 61.9058
CA -0.758922 -17.0126 67.4279
CA -13.517 17.0376 48.7557
CA -46.3874 10.0502 36.0474
CA 3.05358 -10.9241 62.1889
CA -34.79 7.0211 56.6016
CA -25.4786 18.3762 34.6923
CA -13.8672 32.2963 34.3394
CA -4.34715 16.563 33.6289
CA -21.2488 -12.9075 70.959
CA -47.3708 5.19386 33.8394
CA -30.2299 10.5407 60.2907
CA -50.0272 -3.01202 53.6929
CA -5.44332 2.2244 72.9463
CA -22.8476 0.052211 57.4411
CA -16.8457 16.2725 63.6293
CA -9.89766 29.2372 23.9981
CA -36.7778 19.7922 51.7811
CA -11.9239 35.8277 31.2221
CA -33.7409 17.8133 34.3229
CA -21.4957 21.5248 42.8223
CA -20.4314 18.6131 25.1187
CA -11.6103 12.9892 67.3695
CA -28.5676 -1.26188 58.7786
CA 4.94977 18.3662 45.5807
CA -24.7134 15.0021 34.573
CA -18.2595 7.62328 30.5641
CA -12.3482 22.6707 18.4675
CA -31.04 0.391626 60.2238
CA -19.7046 2.99383 73.7366
CA -16.9902 16.331 76.5324
CA -28.2234 5.29792 63.2456
CA -18.5077 -8.41454 76.073
CA -0.751573 14.1648 26.0167
CA -23.9203 26.6461 14.2053
CA -18.8385 27.314 16.4905
CA -23.8915 -14.4616 54.9305
CA -45.5497 5.21639 33.5094
CA -44.5456 8.41285 44.6889
CA -12.5289 14.3364 52.3534
CA -6.14449 27.9791 39.0337
CA -38.0864 0.411053 48.0167
CA -14.7835 -5.41051 70.5547
CA -29.5997 1.57849 59.663
CA -6.41783 -16.8388 54.3648
CA -17.1529 13.5321 27.2038
CA -35.0382 19.6796 19.9395
CA -17.4382 -11.846 67.7176
CA -15.3059 0.0544361 77.6938
CA -4.8343 23.3753 53.5075
CA -36.9878 -5.22148 50.9099
CA -38.3682 -2.68471 48.1516
CA -22.0896 -3.51406 58.8377
CA -26.1136 0.0228838 70.4594
CA -19.4276 17.9317 63.5572
CA -19.5346 0.217434 56.5449
CA -11.9796 6.05746 30.6163
CA -18.0121 4.55764 67.2333
CA -9.98191 25.853 18.3922
CA -40.4429 -0.875131 59.5496
CA -13.9245 16.7746 72.6215
CA -20.5859 -7.09363 67.1653
CA -35.7754 17.7437 59.3719
CA -2.7529 17.0581 19.804
CA -19.2884 10.2783 49.1705
CA -34.0634 9.99784 42.1023
CA -14.6215 3.69301 76.2715
CA -44.5548 -5.14194 59.273
CA -20.5844 -10.7666 70.051
CA -22.8057 -0.20341 59.2845
CA -39.2961 1.16418 52.8258
CA 2.31387 -0.925968 66.5387
CA -9.1027 22.751 16.139
CA -8.84177 11.9178 24.6386
CA -10.1918 15.2223 51.3476
CA -8.36554 5.8006 30.6572
CA -41.5053 -1.90907 62.2333
CA -18.0954 10.2294 59.4688
CA -35.9574 22.0396 18.3134
CA -32.3661 6.34458 37.8936
CA -46.4285 9.37936 55.3103
CA -11.6361 18.3664 54.5677
CA -26.0504 10.4622 59.1326
CA -14.5998 17.1444 21.1707
CA -38.7368 19.0751 47.376
CA -41.4384 18.8429 64.6895
CA -11.1174 -5.59142 77.7534
CA -29.4354 2.53513 31.6938
CA -19.8265 -5.06273 62.4431
CA -7.94763 14.5292 48.106
CA -35.8732 13.3943 64.9065
CA -45.9234 3.07289 28.0089
CA 6.19747 16.0682 49.8923
CA -17.3266 -8.04729 66.3128
CA -18.7406 15.3737 68.7043
CA -36.4358 6.54665 43.5466
CA -1.80253 22.3678 51.0049
CA -46.8651 7.26844 34.3419
CA 3.89186 -5.22996 67.4368
CA -30.3327 10.0461 38.9813
CA -24.5869 10.0772 48.9555
CA -12.1867 33.7996 30.2062
CA -4.00237 12.2512 52.0991
CA -7.07813 15.9736 57.6914
CA -42.5411 9.63575 32.4223
CA -10.2848 4.31129 71.7372
CA -25.4464 -12.0058 70.6631
CA -0.474856 -12.8054 63.1179
CA -25.0417 20.5679 41.6077
CA -29.0373 8.42689 65.1364
CA 1.62676 -4.53488 66.7686
CA -12.6112 4.4055 69.0417
CA -31.4571 13.1181 56.4661
CA -20.6644 9.05998 50.7064
CA -14.4371 4.18732 35.5603
CA -2.35168 -3.41951 69.2539
CA -36.3979 3.34102 45.0676
CA -39.5017 7.13192 50.988
CA -33.4825 22.0298 20.1428
CA -27.2002 29.6932 53.0012
CA -31.433 12.2057 59.8423
CA -40.5453 19.3758 59.7459
CA -27.4571 22.8904 38.0168
CA -13.9026 -13.5429 77.0875
CA 5.64209 -1.09101 64.6392
CA -5.71612 -0.437844 76.4439
CA -19.8594 11.2816 52.8657
CA -19.6098 -8.32766 59.5095
CA -30.595 24.6576 63.1745
CA -5.83322 15.9802 22.1712
CA -32.8509 14.1894 42.3138
CA -2.44125 -18.8088 50.0004
CA -10.0469 36.1087 30.5875
CA -8.28258 27.8601 36.2498
CA -8.71784 18.5864 16.7049
CA -1.67458 19.8428 41.9573
CA -4.67692 -21.5741 58.137
CA -22.6975 23.6002 17.7213
CA -5.10672 20.8811 52.1057
CA -48.5188 7.37463 59.2806
CA -5.37682 -12.2403 63.1285
CA -13.3681 -7.50441 76.2597
CA -12.3455 -4.84889 70.5177
CA -30.4092 24.9146 19.1086
CA -1.94492 -18.606 70.7634
CA -47.4637 7.66235 29.6533
CA -17.9475 -10.101 66.6729
CA -17.1838 -5.01774 70.6819
CA -11.6931 18.9929 51.2677
CA -21.2447 16.4791 61.9059
CA -19.5476 16.7519 24.7617
CA -20.0108 16.0184 47.6858
CA -33.6652 2.93089 61.3588
CA -6.03667 -22.0762 57.0151
CA -27.5399 9.3561 66.8841
CA 1.34049 17.4847 43.3524
CA -44.9605 7.47626 34.6993
CA -16.7672 -10.1371 52.2389
CA 5.11018 -11.7156 44.9283
CA -13.1459 -1.38069 52.5532
CA -30.5899 3.6847 59.563
CA -28.9108 13.1495 62.2509
CA -8.38202 31.7124 28.7643
CA -5.12491 24.2996 19.6614
CA -16.7739 -9.22397 76.262
CA -29.9767 31.1093 57.0067
CA -2.51077 3.31579 37.3931
CA -28.0624 -10.6656 75.9524
CA -12.0077 26.513 15.6095
CA -23.3381 -6.75275 63.4956
CA -16.9046 10.9947 48.6442
CA -34.7378 17.8065 64.4305
CA -30.2773 -6.87849 70.9739
CA -42.3943 16.5627 62.513
CA -42.9141 6.98564 49.8417
CA -24.007 22.5674 37.468
CA -5.92085 20.0002 19.4276
CA -11.6096 -2.86786 35.3015
CA -8.04312 22.3546 19.4043
CA -4.74729 -1.79088 79.5677
CA -14.9476 -4.31999 46.5485
CA -17.4234 -11.989 74.9533
CA -40.1469 3.55009 45.0362
CA -15.8171 33.5429 25.8191
CA -31.0893 -11.489 72.6928
CA -28.3771 5.25984 60.4902
CA -20.5984 -4.42371 59.6616
CA -5.84501 10.7078 50.2917
CA -10.9395 33.2291 35.6624
CA 7.60931 -13.6184 56.2314
CA -19.1663 29.912 16.8154
CA -18.2705 -15.9618 68.6237
CA -19.9886 7.31423 50.7538
CA -6.11816 8.19058 32.5953
CA -31.0708 2.63757 47.0384
CA -22.6219 8.51036 51.8555
CA -37.0597 3.51043 47.1203
CA 3.95692 -5.862 70.2924
CA -0.631145 -15.2498 65.186
CA -30.2219 -5.24595 74.1508
CA -7.37951 11.2815 62.9728
CA -4.20713 -18.1436 50.4754
CA 3.24448 0.0262129 61.9182
CA -17.7986 1.36453 82.2121
CA -2.28486 0.69714 68.845
CA -25.1665 -5.98893 74.598
CA -23.1045 22.1389 50.0981
CA -45.1464 3.59027 52.7668
CA -37.3372 9.96402 42.8695
CA -16.1024 30.5343 28.8803
CA -17.0429 9.42328 24.7436
CA -12.2735 18.2324 24.1216
CA -42.5355 -2.95382 57.3269
CA -15.3511 28.9022 27.8648
CA -34.9569 3.23099 52.1801
CA -30.2318 15.3359 48.4686
CA -30.3834 6.12969 49.2198
CA 0.390944 -15.7071 58.557
CA -2.36554 -14.7869 66.5488
CA -38.2855 13.3139 33.9455
CA -0.213833 13.4688 49.2656
CA -40.5325 15.0582 64.8307
CA -23.892 4.18416 48.8876
CA -23.0144 11.0681 49.8168
CA 0.0139775 20.4302 52.0791
CA -9.24611 16.2675 59.2122
CA -13.3902 27.8458 15.4708
CA -20.1807 5.34248 67.2872
CA -22.57 16.4647 19.6269
CA -22.56 -14.1627 66.4781
CA 5.82473 -13.7325 44.7799
CA -4.04457 0.590394 73.4588
CA -12.7721 0.240292 70.5595
CA -14.6959 21.4124 15.9281
CA -22.8194 17.1817 70.6272
CA -40.9988 9.63871 62.6401
CA -45.2223 5.85538 51.9413
CA -12.8277 -2.4116 71.852
CA -7.23566 19.1592 30.7361
CA -26.7882 14.9186 47.8667
CA -21.7809 -9.06543 59.1773
CA 0.559373 -21.0255 70.5735
CA -4.08829 1.14711 76.0814
CA -19.9434 18.2252 50.1089
CA -31.9782 20.6195 66.1784
CA 6.14823 -10.1174 60.5316
CA -8.10123 21.8675 29.3395
CA -16.4954 19.6656 68.6591
CA 5.56029 -17.042 47.0439
CA -16.2799 4.75179 31.1512
CA 3.26117 28.7911 55.7494
CA -22.2913 18.7583 27.9868
CA -19.1765 10.885 29.0494
CA -13.8628 18.8001 54.3131
CA -13.3607 14.3123 55.9106
CA 2.36083 -17.0107 49.4271
CA 0.837288 -17.8903 63.6818
CA -10.6065 26.9825 20.1833
