489

CA -33.0487 0.357996 55.4125
CA -11.5335 32.7719 18.5153
CA -19.4305 20.9052 64.2038
CA -16.7068 -6.9394 76.3485
CA -11.3786 18.1777 72.0491
CA -34.5894 10.0799 50.0614
CA -19.9255 7.74402 45.4722
CA -19.6883 3.2621 79.5325
CA -28.8495 21.8976 23.7298
CA -13.032 32.6961 17.2182
CA -19.0572 2.27406 74.3074
CA -13.9953 -1.38043 81.193
CA -29.886 -10.9737 65.8553
CA -27.357 30.8375 55.026
CA -13.4919 17.9339 55.2871
CA -11.2808 21.6584 69.6514
CA -11.5753 1.51022 35.1931
CA -31.6411 27.9187 60.2698
CA -19.4296 9.45363 47.1472
CA -25.3837 29.7637 43.5518
CA -24.3244 14.4257 72.1625
CA -19.5033 17.8439 27.925
CA -26.8714 23.7457 19.5475
CA -45.3838 -1.96919 57.6509
CA -8.04421 -15.9396 79.4887
CA -11.1669 4.13178 80.3547
CA -9.00815 25.8763 44.8398
CA 3.84577 -15.0242 52.8362
CA -22.4785 15.4594 46.124
CA 4.49094 -10.6999 63.4824
CA -22.5552 19.3722 80.0658
CA -12.7087 5.87091 32.2276
CA -5.63956 -14.8643 56.9694
CA -24.3137 3.90488 58.9265
CA 3.05022 -6.68745 57.712
CA -16.3978 2.10268 54.5357
CA 0.738845 -0.215038 83.2611
CA -15.0598 19.9862 42.1306
CA -3.71921 -17.9807 54.7611
CA -19.2016 6.57956 47.433
CA -10.7341 1.80202 79.217
CA -18.7875 14.6254 63.3416
CA -32.7543 34.8751 56.4413
CA -31.8911 12.4852 41.9898
CA -7.12328 3.10168 74.9035
CA -17.3967 28.2439 32.4401
CA -50.9261 5.00881 33.14
CA -48.4297 9.46679 32.0902
CA -4.21568 13.1619 68.2111
CA -3.94802 -14.0912 49.3047
CA -37.0675 15.7985 62.9609
CA -18.7869 10.2699 80.0753
CA -14.365 2.22282 74.5013
CA -37.0022 -0.0750816 52.3162
CA -18.4555 22.0349 69.1081
CA -43.8123 9.06334 56.3327
CA -0.953771 -11.7615 70.5706
CA -20.9944 19.2304 67.3813
CA -2.48914 -2.00108 79.8712
CA -15.3231 30.2183 19.0265
CA -11.3007 -13.6718 78.3441
CA -46.7143 0.860403 36.6693
CA -6.79523 34.1242 29.1181
CA -23.058 5.65648 59.2631
CA -27.0791 27.9209 43.3503
CA -10.3099 -10.7677 77.4401
CA -12.0917 17.174 22.4092
CA -34.7839 7.82303 41.4313
CA -2.44725 22.7623 38.1983
CA -12.3249 18.5175 77.1508
CA -23.9548 -17.005 74.989
CA -38.2449 4.05897 53.6678
CA -28.3063 -2.09506 68.6158
CA -33.5792 25.2358 60.7794
CA -18.6384 30.548 42.9344
CA -5.90426 25.1285 23.472
CA -15.8087 13.4229 59.2489
CA -18.7769 18.0054 70.4135
CA -41.245 22.3847 58.0857
CA -47.3591 8.64801 44.8072
CA -4.40502 18.9571 22.2051
CA -28.1894 21.535 64.295
CA -24.201 -1.32797 75.188
CA -16.5093 9.76336 76.4865
CA -28.3674 22.8019 15.7204
CA -15.7707 34.4686 22.5535
CA -12.0137 1.49026 76.841
CA -15.6887 2.6134 46.3662
CA -7.09639 11.1714 67.8227
CA -43.4005 16.0042 55.0907
CA -29.9703 14.9753 26.7813
CA -24.631 14.9561 37.6032
CA -20.2919 33.7934 33.3523
CA -18.1558 -7.11483 70.1355
CA -33.4219 5.44445 59.9994
CA -26.6269 26.789 21.7772
CA -31.1336 21.7898 19.2991
CA 4.09836 -20.7911 62.0437
CA -32.4095 22.8006 17.8853
CA -31.546 2.50375 53.6826
CA -3.16664 27.9284 25.3934
CA -18.0391 18.6597 63.7274
CA -21.5112 20.9239 51.1587
CA -39.2449 6.12611 54.3053
CA -10.3405 34.4017 15.9371
CA -17.5087 15.9151 36.829
CA -10.7136 23.2035 43.5139
CA 3.16596 -17.2141 61.5021
CA -13.5583 36.0435 27.4604
CA 6.01717 -22.5832 62.9284
CA -21.0143 3.1657 59.4836
CA -29.8331 13.4189 53.4746
CA -17.939 -11.459 54.0887
CA -16.3455 -5.32468 75.5243
CA -50.2725 3.33748 43.4818
CA -14.3164 6.06105 72.2624
CA -37.0075 10.8738 61.449
CA -8.17111 -3.27912 80.2412
CA -25.9825 24.3276 63.516
CA -30.5445 -3.13306 67.0942
CA -15.7663 29.8452 16.474
CA -36.0768 14.4268 52.6028
CA -34.5198 -14.2071 68.735
CA -26.5862 20.177 73.2548
CA -17.3324 26.0809 58.8419
CA -15.4198 -8.01309 74.959
CA -7.24291 30.9038 15.6849
CA -5.3865 19.7977 24.4624
CA -7.20711 32.6204 33.3182
CA -31.0895 -6.0178 57.5496
CA -13.9154 14.2174 76.8323
CA -32.7376 8.40535 37.8019
CA -4.71855 -16.4429 59.3758
CA -23.2964 29.4025 62.1857
CA -29.7413 21.2454 38.4617
CA -14.425 30.1299 44.4191
CA -16.9644 14.766 53.1971
CA -29.4766 5.30919 62.1802
CA -25.0639 23.1839 19.8109
CA -34.5864 13.8091 45.494
CA -22.4598 -0.0502204 74.8033
CA -3.15641 20.3662 39.5329
CA -9.51825 -11.7592 78.8369
CA -19.702 31.3848 31.9942
CA -18.543 19.6481 24.0911
CA -22.3351 24.1873 61.0371
CA -19.6003 -14.3626 66.3416
CA -41.6018 7.39662 53.2675
CA -16.4829 19.8734 18.8484
CA 2.3098 -21.5146 63.3984
CA -35.5447 16.1574 43.0897
CA -44.7683 0.930337 32.2708
CA -7.56183 15.984 21.4222
CA 0.888891 28.3636 30.9323
CA -22.9287 3.95791 53.4415
CA -42.8211 5.50709 41.5102
CA -25.0125 -13.3956 65.139
CA -11.8356 13.7252 51.5263
CA -6.92459 24.2328 15.7471
CA -37.7496 7.53761 45.8468
CA -1.294 -3.76696 82.7152
CA -17.5143 11.8497 66.2799
CA -32.5427 18.1144 20.0159
CA -13.2821 22.368 53.9117
CA -8.10782 -14.9263 75.287
CA -14.4904 21.9227 58.0853
CA 3.47417 -2.32012 69.3718
CA -6.15076 20.9524 42.3628
CA -25.5315 -0.396492 79.8611
CA -18.8983 10.5613 41.4053
CA -10.0691 -15.3858 84.8917
CA -17.9709 -4.78257 73.4099
CA -7.08008 -24.1738 51.1583
CA 4.72934 0.009115 72.7369
CA 1.74637 -20.3263 64.7515
CA -13.7839 11.3628 48.4808
CA -20.9638 11.4536 46.4495
CA -23.4493 13.883 67.9286
CA -32.0565 10.8732 51.1819
CA 7.9223 -15.861 64.9905
CA -5.97958 14.3278 66.0209
CA -30.121 11.8228 56.0941
CA -48.6286 -0.829824 42.7011
CA -1.5676 -12.5821 43.7858
CA -22.9516 18.1837 48.305
CA -24.6393 3.61823 54.1919
CA -31.5328 -13.2456 68.3515
CA -18.4154 -10.7695 67.4699
CA -24.3931 29.2266 52.2726
CA -26.4928 29.413 62.3434
CA -3.27883 -7.1861 68.493
CA -44.4061 4.79976 51.1024
CA -20.6235 -5.14593 58.1407
CA -1.16909 -20.224 63.2048
CA -15.0489 1.14173 73.0744
CA -45.6617 5.7252 54.6797
CA -15.6994 -9.99612 57.2922
CA -9.85606 20.9181 53.0634
CA -20.7178 25.5431 56.012
CA -26.1719 27.5298 54.3749
CA -9.87099 2.34069 36.0771
CA -12.9112 13.5119 58.9847
CA -12.79 16.639 57.4217
CA -13.5204 3.90058 75.116
CA -26.9438 -13.263 49.4932
CA -43.3806 1.26968 38.8985
CA -17.799 14.8217 26.1932
CA -33.6276 11.2808 54.2751
CA -18.8466 -10.8902 71.6487
CA -17.349 -13.5901 77.8548
CA -45.2173 6.63719 43.5853
CA -26.7782 1.36704 61.3936
CA -0.355934 27.8361 29.049
CA -30.7225 -14.0451 63.8998
CA -15.1309 10.2044 74.4936
CA -15.9232 -2.91942 75.8206
CA -38.754 -1.69491 48.345
CA -45.5701 8.96551 38.2114
CA -4.44727 -9.81521 78.8812
CA -28.3426 25.8515 23.3709
CA -10.9812 -12.9973 80.7587
CA -9.85295 32.029 34.6477
CA -36.8467 -1.89057 50.8671
CA -29.2388 25.0919 52.5595
CA -21.155 14.5644 70.5996
CA -15.4565 -7.62805 54.3249
CA -8.02575 13.928 48.4766
CA -10.3625 31.7955 31.6743
CA -21.7245 -11.5265 55.7634
CA -45.3711 9.93909 41.5095
CA -24.0083 16.7175 72.4326
CA -44.5374 4.79993 46.544
CA -4.70691 -16.4938 52.2183
CA -9.79784 24.561 15.598
CA -19.912 12.3188 44.5657
CA -37.2967 4.17731 48.4168
CA -34.8313 7.394 39.3507
CA -30.3208 22.7891 65.7568
CA -5.52309 -17.6456 53.4057
CA -26.8469 16.1917 34.5529
CA -31.355 3.15203 65.4042
CA -11.3151 23.0623 20.3534
CA 2.30234 -14.6752 46.953
CA -19.868 5.65948 77.0861
CA -15.9074 15.8325 76.8908
CA -3.67222 2.91902 71.7201
CA -16.8457 16.2725 63.6293
CA -27.7557 29.7095 60.0439
CA -23.3255 30.1032 45.4816
CA 7.2542 -8.08259 64.1502
CA -11.9449 21.7812 40.1569
CA -30.432 18.8521 16.2126
CA -30.1321 10.6135 47.1007
CA -13.5145 14.751 53.7235
CA -36.7113 24.6369 62.9486
CA 0.960945 6.15434 76.3668
CA -19.9335 10.6318 24.5636
CA 3.32715 -0.891307 70.9387
CA -1.36818 8.60094 73.2372
CA -27.7623 -7.15317 71.3745
CA -28.0697 20.7706 50.4403
CA -29.3216 23.279 50.4071
CA -26.8225 20.2955 16.7865
CA -37.3485 22.9459 67.6395
CA -31.1794 22.1866 37.8415
CA -5.74697 -6.98651 61.2779
CA -12.4688 22.1623 57.917
CA -24.0427 19.0449 45.2717
CA -28.4694 10.9226 52.7423
CA 8.09611 -10.7879 60.7903
CA -19.4873 19.9701 42.8323
CA -7.01086 -5.68149 81.7678
CA -37.632 13.1414 66.3954
CA 2.52 -22.5241 60.502
CA -12.8173 21.145 24.8506
CA -23.9506 26.9318 63.9224
CA -27.4549 23.6571 64.963
CA -42.0608 19.2659 52.1771
CA -28.1755 -17.0856 66.0483
CA 2.40353 -12.2666 68.4026
CA -48.3238 3.10892 52.9041
CA -12.1957 24.9834 41.8392
CA -30.3635 9.91433 56.186
CA -6.59911 13.9717 68.6771
CA -21.6645 12.3173 70.419
CA -15.0865 -14.819 75.4037
CA -34.8707 5.60208 45.034
CA -7.43147 24.3532 38.6636
CA -20.513 -1.77457 70.9272
CA -13.9328 24.3626 60.3452
CA 4.8015 0.447709 68.9654
CA -18.6356 37.4236 22.6142
CA -14.6402 25.5181 27.6934
CA -3.69778 -13.2721 71.2313
CA -34.2015 13.8231 50.1485
CA -46.0186 7.26579 35.7153
CA -34.6914 17.55 71.4139
CA -35.2996 20.5857 66.822
CA -24.783 -2.3057 76.9697
CA -13.4778 26.5544 21.9871
CA -30.5993 -9.9611 72.9357
CA -21.0505 20.4223 65.9086
CA -5.25987 -6.54593 65.3226
CA -40.3603 10.6272 53.0963
CA -30.3322 17.1682 30.9651
CA -15.0361 5.45206 34.3365
CA 4.86905 -7.49064 62.4045
CA -32.7246 16.7868 34.1201
CA -37.7977 20.1476 50.8056
CA -17.74 12.6113 58.4018
CA -32.3661 6.34458 37.8936
CA -23.4506 -13.1701 63.3478
CA -28.781 29.6212 57.5556
CA -13.1978 15.2596 51.6476
CA -29.0774 14.7275 38.3358
CA 5.56611 -1.44839 67.5019
CA 7.94098 -17.7027 60.3133
CA -10.5584 32.0575 42.6513
CA -39.8444 15.2096 61.5008
CA -0.904869 8.11532 76.1549
CA -34.1718 21.6821 39.2056
CA -34.8767 7.66348 36.9391
CA -11.1058 34.4091 19.4397
CA -35.0693 11.9303 61.1212
CA -0.083335 -11.2146 66.2216
CA -28.1938 14.1387 34.2946
CA -15.0774 4.52008 79.4994
CA -4.93919 0.476343 67.4919
CA -5.63693 18.7248 19.879
CA -8.15688 0.877104 33.9325
CA -30.7931 14.7228 42.2695
CA -27.7599 -3.78844 74.3547
CA -25.2947 -13.8047 57.3485
CA -25.2721 -15.3106 62.1313
CA -15.4579 -8.93979 58.9267
CA -25.4942 19.4867 17.733
CA -16.0064 26.8725 15.8322
CA -35.2658 -1.38059 54.5451
CA -29.5629 -3.4666 56.4835
CA -43.4101 13.6644 54.0807
CA -28.267 4.9154 48.8108
CA -21.1989 20.0246 79.022
CA -44.1289 4.93979 37.1119
CA -50.28 6.85702 27.3422
CA -26.8684 20.3362 77.7018
CA -14.4371 4.18732 35.5603
CA -32.5962 26.4087 44.182
CA -21.2157 2.97963 70.4658
CA -24.0568 -12.1226 59.6174
CA -33.4825 22.0298 20.1428
CA -27.2002 29.6932 53.0012
CA -37.1999 6.86102 56.3803
CA -26.0631 18.7311 71.2925
CA 0.158033 -23.7894 61.3288
CA -11.3179 1.64434 50.1305
CA -12.6896 33.2387 26.5684
CA -3.73057 -1.22237 81.4979
CA -3.32943 -14.6267 59.7543
CA -12.4736 32.1789 43.0413
CA -20.6093 -10.0013 72.4487
CA -39.7243 16.4705 53.3176
CA -12.007 18.2127 51.5473
CA -2.44125 -18.8088 50.0004
CA -15.4526 20.6869 65.0024
CA -38.5896 9.76932 33.8592
CA -25.2855 -11.2171 63.9089
CA -49.8301 0.494111 55.7198
CA -34.1831 20.2712 40.4398
CA -30.8641 -8.13655 60.5271
CA -10.0262 -17.233 76.2876
CA -38.3693 15.202 33.5759
CA -46.0798 11.362 35.7267
CA -13.3681 -7.50441 76.2597
CA -5.14432 -19.9911 53.6416
CA -30.4092 24.9146 19.1086
CA -19.642 -14.7759 55.7663
CA -9.79208 21.4712 19.1042
CA -35.0897 17.5002 26.2443
CA -31.437 32.8533 58.895
CA -29.2491 35.3358 58.9606
CA -28.6606 12.5297 42.6116
CA -16.789 8.54034 29.7302
CA -7.56375 10.937 49.4539
CA -10.2201 6.5764 83.0266
CA -16.4997 11.7076 64.0123
CA 9.06534 -3.75025 69.6925
CA -30.5971 -1.82908 52.8083
CA -24.04 21.5665 21.3028
CA -50.4259 -0.200922 53.2988
CA -36.191 14.837 59.1664
CA -3.15981 5.38969 66.2934
CA -5.30634 5.17593 69.8511
CA -14.5537 0.109929 52.3545
CA -14.0677 0.797741 50.334
CA -15.3165 17.6115 73.5408
CA -30.7152 21.639 43.4548
CA 6.47653 -13.2019 45.4925
CA -28.3674 27.0691 54.6958
CA -29.8048 6.55503 49.007
CA -28.6084 -5.42951 71.7326
CA -6.9969 18.739 22.1673
CA -16.9046 10.9947 48.6442
CA -0.492069 2.94388 72.7378
CA -18.2016 29.7653 31.5058
CA -25.4024 21.571 27.2235
CA -1.04641 -9.47672 44.1799
CA -18.9411 12.5415 24.6614
CA -10.7896 19.7164 40.3904
CA -1.72882 -16.7255 59.6647
CA -32.9931 8.80568 63.4486
CA -22.5798 3.71581 74.4085
CA -27.7669 8.01947 48.984
CA -34.946 8.82546 45.8538
CA -35.9634 12.7051 46.237
CA -30.6942 -5.6425 52.1959
CA -13.4834 3.62501 72.5738
CA -11.2504 27.5676 18.4592
CA -11.1408 25.3774 43.5515
CA -22.1351 -4.96222 74.0715
CA -17.5187 -0.0525564 69.5025
CA -7.72836 29.5563 14.4729
CA -19.1663 29.912 16.8154
CA -31.371 6.49967 47.7401
CA -38.577 24.9633 70.0935
CA -27.507 -11.6697 53.0724
CA -13.0549 19.2369 38.5175
CA -16.0147 7.18314 38.443
CA -14.9847 -9.92798 71.1091
CA -20.7647 14.3054 44.7715
CA -48.5133 7.29306 42.1841
CA -27.5658 34.2653 61.4789
CA -31.8795 5.33404 62.7894
CA -27.7007 4.98366 53.9559
CA -28.6659 27.009 43.7254
CA -41.0898 6.99104 40.8681
CA -18.8573 22.7037 50.4823
CA 6.97741 -3.17855 65.0809
CA -19.7458 -6.31944 59.5734
CA -45.1464 3.59027 52.7668
CA -48.6082 3.92201 34.2863
CA -5.08601 -11.5067 75.453
CA -17.0429 9.42328 24.7436
CA -31.2222 24.2898 55.6895
CA -16.2655 0.47955 53.4376
CA -15.3511 28.9022 27.8648
CA -31.3303 26.6775 23.4338
CA -30.4243 19.7726 68.2771
CA -18.2415 33.5614 31.8445
CA -28.5268 24.4218 18.5316
CA -33.465 12.2792 43.35
CA -33.5504 25.4062 47.485
CA -7.78344 -12.6159 75.1332
CA -15.8687 14.7603 24.8189
CA -26.0165 21.5268 25.2368
CA -39.8839 22.1784 59.91
CA -1.13502 -12.4286 61.7056
CA -16.7852 -5.98829 56.4064
CA 6.69236 -11.4756 41.3994
CA -12.2618 -11.5134 75.6174
CA 4.37914 -19.2009 60.2999
CA -14.9399 0.984601 80.0761
CA -36.4778 12.3411 35.0131
CA -6.68915 -21.7045 51.6939
CA -32.0587 26.7593 58.3052
CA -27.9311 0.348275 60.1628
CA -4.25913 -21.4543 50.3917
CA -14.8844 7.42314 31.7649
CA -21.9452 27.4813 42.4059
CA -17.1104 20.9697 55.4616
CA -13.7133 -17.9242 48.6656
CA -33.3478 18.7186 23.74
CA -20.5532 25.5278 49.2756
CA 4.73502 -22.7497 67.1613
CA -9.34395 -18.6957 50.5812
CA -23.2528 14.8416 34.8099
CA -0.508542 -9.68956 63.8609
CA -30.2678 -2.28805 49.4883
CA 1.51667 -23.7603 67.676
CA -29.3294 -7.26124 70.468
CA -18.5255 11.3644 47.5085
CA -27.5198 -14.7021 67.026
CA -17.9973 32.803 35.1771
CA -13.0199 22.1813 14.4433
CA -32.9074 -7.69849 55.0773
CA -19.7618 -14.9627 72.9337
CA -7.60013 9.39112 70.0951
CA 2.36083 -17.0107 49.4271
CA -16.7842 17.518 68.1457
CA -25.6822 1.00348 76.9952
