489

CA -33.0487 0.357996 55.4125
CA 9.1839 -16.9932 58.5606
CA -41.8685 9.2851 39.897
CA -23.985 14.7313 44.617
CA -11.3786 18.1777 72.0491
CA -34.5894 10.0799 50.0614
CA -19.9255 7.74402 45.4722
CA -19.6883 3.2621 79.5325
CA 4.6372 -11.9649 46.6375
CA -23.338 3.32919 57.182
CA -19.0572 2.27406 74.3074
CA -32.6154 25.3412 17.6331
CA -26.4943 25.5873 67.6549
CA -18.2801 11.9158 45.9904
CA -20.791 14.3022 58.9637
CA -23.4189 -17.1053 59.5314
CA 8.74778 -11.0009 59.1093
CA -23.1056 20.426 76.9546
CA -35.107 7.99399 41.4343
CA -34.5451 -2.53166 54.9109
CA -33.3433 16.2843 63.8323
CA -19.5033 17.8439 27.925
CA -26.8714 23.7457 19.5475
CA -15.7615 13.8306 23.2162
CA -18.1429 22.9912 56.8223
CA -37.5349 15.2665 42.5197
CA -31.5886 -9.17777 59.547
CA -42.6746 11.9178 53.0312
CA -22.4785 15.4594 46.124
CA 4.49094 -10.6999 63.4824
CA -22.5552 19.3722 80.0658
CA -12.7087 5.87091 32.2276
CA -34.0621 8.57431 49.0474
CA -31.5901 17.5341 37.3881
CA -17.2637 15.3931 69.9177
CA -16.3978 2.10268 54.5357
CA -11.2024 21.6918 40.7264
CA -15.0598 19.9862 42.1306
CA -3.71921 -17.9807 54.7611
CA -35.0656 13.4393 48.6143
CA -19.055 30.441 29.8456
CA -26.8957 22.3363 20.9309
CA -33.2731 25.7607 23.8165
CA 1.82588 -14.8716 49.7632
CA -7.12328 3.10168 74.9035
CA -17.3967 28.2439 32.4401
CA -4.38513 21.8509 26.5917
CA -48.4297 9.46679 32.0902
CA -36.0474 9.98843 33.7088
CA -3.94802 -14.0912 49.3047
CA -37.0675 15.7985 62.9609
CA -18.5074 -9.64772 54.5314
CA -29.5505 20.2564 55.7667
CA -33.5724 10.61 35.1245
CA -36.0487 8.72685 45.1621
CA -2.39375 5.99273 72.155
CA -51.1174 0.788134 45.3408
CA -21.1184 34.0843 18.8945
CA -29.7828 11.6031 40.7542
CA -15.3231 30.2183 19.0265
CA -40.0732 -1.15097 55.9126
CA -18.0624 26.2615 22.5659
CA -30.2632 -13.6778 51.04
CA -39.0947 17.4977 56.936
CA -13.7513 11.1883 31.4195
CA -10.3099 -10.7677 77.4401
CA -35.1901 21.7024 26.9791
CA -34.7177 2.12686 39.9201
CA -14.4054 6.72637 75.0035
CA -12.3249 18.5175 77.1508
CA -17.1988 -16.9529 72.3876
CA -11.1389 3.26051 71.6273
CA -19.3202 6.02172 71.3092
CA -12.8761 27.7719 39.466
CA -18.6384 30.548 42.9344
CA -5.90426 25.1285 23.472
CA -48.7011 4.51965 30.7441
CA -16.7317 22.3323 59.7312
CA -42.4136 5.78472 36.4765
CA -47.3591 8.64801 44.8072
CA -15.9842 13.6196 42.4296
CA -13.289 1.50348 69.0602
CA -19.4961 31.8262 33.5679
CA -16.5093 9.76336 76.4865
CA 1.58242 -6.51679 48.5778
CA -15.7707 34.4686 22.5535
CA -12.0137 1.49026 76.841
CA -26.499 -15.5894 49.4515
CA -7.09639 11.1714 67.8227
CA -15.156 18.1943 21.8772
CA -29.9703 14.9753 26.7813
CA -24.631 14.9561 37.6032
CA -19.6715 9.31715 53.3076
CA -30.0035 23.2163 62.2997
CA -33.4219 5.44445 59.9994
CA -17.3563 18.1768 77.3541
CA -31.1336 21.7898 19.2991
CA -18.5244 8.10301 71.2814
CA -42.8774 8.23428 55.1083
CA -16.4339 8.10834 73.5094
CA -3.16664 27.9284 25.3934
CA -18.0391 18.6597 63.7274
CA -21.5112 20.9239 51.1587
CA -28.583 23.6817 43.1797
CA -25.9465 -7.8726 73.5032
CA -17.5087 15.9151 36.829
CA -10.7136 23.2035 43.5139
CA 3.16596 -17.2141 61.5021
CA -13.5583 36.0435 27.4604
CA -28.6152 12.7153 29.3704
CA -21.0143 3.1657 59.4836
CA -13.0674 23.6438 78.7272
CA -17.939 -11.459 54.0887
CA -16.3455 -5.32468 75.5243
CA -50.2725 3.33748 43.4818
CA -14.3164 6.06105 72.2624
CA -30.1284 15.0141 34.6854
CA 0.607691 0.222625 72.5925
CA -25.9825 24.3276 63.516
CA -30.5445 -3.13306 67.0942
CA -39.8504 10.521 65.5605
CA -30.5224 9.26565 44.6003
CA 10.8551 -8.95334 63.156
CA -26.5862 20.177 73.2548
CA -17.3324 26.0809 58.8419
CA -15.4198 -8.01309 74.959
CA -11.3583 1.37065 82.0142
CA -16.1689 16.435 62.3833
CA -7.20711 32.6204 33.3182
CA -31.0895 -6.0178 57.5496
CA -13.9154 14.2174 76.8323
CA -32.7376 8.40535 37.8019
CA -4.71855 -16.4429 59.3758
CA -23.2964 29.4025 62.1857
CA -1.43531 -12.2432 57.9931
CA -14.425 30.1299 44.4191
CA -47.1955 -4.9777 40.2616
CA -24.493 20.7635 19.4394
CA -25.0639 23.1839 19.8109
CA -14.4445 15.5531 79.8331
CA -22.4598 -0.0502204 74.8033
CA -3.15641 20.3662 39.5329
CA -34.6975 1.66665 55.2653
CA -17.336 0.5844 77.8048
CA -25.3392 7.85239 71.3207
CA -14.4697 24.4093 77.4687
CA -19.6003 -14.3626 66.3416
CA -41.6018 7.39662 53.2675
CA -0.455819 26.7889 31.0478
CA -18.8407 7.63826 56.0786
CA -37.0625 20.9622 52.2619
CA -22.7868 11.8818 53.7376
CA -17.3737 11.0122 73.5946
CA -17.0586 7.88924 76.1524
CA -29.0992 21.2008 46.8113
CA -8.95148 22.8161 55.6846
CA -25.0125 -13.3956 65.139
CA -16.5046 -0.52144 75.3361
CA -22.0673 11.2591 44.7031
CA -37.7496 7.53761 45.8468
CA 4.63521 -14.8779 59.5184
CA -1.54444 -11.0039 52.6175
CA -16.9732 30.8194 43.9287
CA -9.9458 4.49173 85.7664
CA -35.0413 5.97192 42.431
CA -30.7442 0.177669 66.6892
CA 3.47417 -2.32012 69.3718
CA -30.5642 7.11096 38.6873
CA -25.5315 -0.396492 79.8611
CA -18.8983 10.5613 41.4053
CA -17.5614 32.5436 21.7434
CA -49.6699 1.18301 55.8664
CA -16.7249 -13.4218 71.6034
CA -26.9471 10.7425 47.688
CA -18.5566 29.2733 19.3843
CA -13.7839 11.3628 48.4808
CA -2.18024 -11.56 75.5077
CA -17.5126 13.9624 29.8652
CA 4.84585 -14.1744 47.6679
CA -37.8562 10.0396 67.9965
CA -21.0501 -9.9981 55.0847
CA -37.3792 -12.649 62.4361
CA -48.6286 -0.829824 42.7011
CA -22.2358 6.80072 72.6847
CA -22.9516 18.1837 48.305
CA -18.6948 17.3941 20.1339
CA -31.5328 -13.2456 68.3515
CA -18.4154 -10.7695 67.4699
CA -11.1984 7.92623 68.9977
CA -26.4928 29.413 62.3434
CA -39.5705 17.5675 50.3309
CA -44.4061 4.79976 51.1024
CA -20.6235 -5.14593 58.1407
CA -4.31192 -17.3974 56.5133
CA -42.9447 6.91742 38.0416
CA -37.2853 26.4613 54.8591
CA -35.8345 21.7683 66.7101
CA -9.85606 20.9181 53.0634
CA -9.87671 -2.44401 77.7355
CA -26.1719 27.5298 54.3749
CA -9.87099 2.34069 36.0771
CA -12.9112 13.5119 58.9847
CA -10.3972 18.3884 27.0883
CA -18.5425 5.97177 75.8805
CA -20.4421 -8.91719 66.9822
CA -9.73901 18.927 23.2735
CA -17.799 14.8217 26.1932
CA -33.6276 11.2808 54.2751
CA -29.0634 18.9753 74.6716
CA -17.349 -13.5901 77.8548
CA -45.2173 6.63719 43.5853
CA -26.7782 1.36704 61.3936
CA -0.355934 27.8361 29.049
CA -3.57929 5.09481 70.6753
CA -6.23975 -15.3669 50.7628
CA -35.442 24.535 69.4469
CA 1.45431 -8.45008 46.3086
CA -45.5701 8.96551 38.2114
CA -4.44727 -9.81521 78.8812
CA -2.53094 -13.8434 51.3989
CA -50.3307 2.91553 35.8403
CA -9.85295 32.029 34.6477
CA -36.8467 -1.89057 50.8671
CA -28.7322 -6.9019 53.7527
CA -34.0655 21.2854 66.6914
CA -12.9991 28.3407 25.9182
CA -36.7646 17.3659 30.5224
CA -10.3625 31.7955 31.6743
CA -21.7245 -11.5265 55.7634
CA -17.9419 21.0134 60.8975
CA -24.0083 16.7175 72.4326
CA -44.5374 4.79993 46.544
CA 5.68372 -14.3803 54.5674
CA -46.6443 1.82077 29.2826
CA -26.0078 5.97337 68.3702
CA -15.9621 28.686 17.0755
CA -38.6474 12.2382 51.6948
CA -30.3208 22.7891 65.7568
CA -5.52309 -17.6456 53.4057
CA -34.3704 -0.368328 56.5248
CA -38.7616 15.5313 56.3777
CA -46.9911 6.37973 40.0482
CA -3.11847 -7.59708 83.6169
CA -9.43989 12.7612 51.3613
CA -8.90384 -14.3049 52.2201
CA -3.67222 2.91902 71.7201
CA -8.08804 24.0503 36.8451
CA -21.9246 20.089 18.4192
CA -28.0022 12.5608 51.0537
CA 7.2542 -8.08259 64.1502
CA -16.6736 3.81668 68.9499
CA -29.9435 -11.7581 64.1082
CA -30.1321 10.6135 47.1007
CA -26.8007 8.09763 47.8135
CA -36.7113 24.6369 62.9486
CA 0.960945 6.15434 76.3668
CA -27.1963 21.4684 18.4019
CA -0.637586 18.4247 36.8792
CA -1.36818 8.60094 73.2372
CA -27.7623 -7.15317 71.3745
CA -28.0697 20.7706 50.4403
CA -29.3216 23.279 50.4071
CA -20.182 11.9138 55.0252
CA -37.3485 22.9459 67.6395
CA -22.7978 -17.9017 57.0496
CA -8.30194 -1.04895 74.4354
CA -35.3416 -10.5937 60.0581
CA -10.6996 3.78599 75.4982
CA -30.2186 23.4879 52.6868
CA -26.5784 -8.63662 62.7753
CA -19.4873 19.9701 42.8323
CA -7.01086 -5.68149 81.7678
CA -23.982 13.4517 38.4907
CA -26.414 23.5252 52.2908
CA 3.53402 -7.88698 59.4412
CA -13.4337 9.39359 72.2106
CA -37.4372 17.7815 59.8885
CA -3.18017 8.54441 68.4293
CA -27.6425 2.76309 59.1947
CA -29.5003 -7.78887 62.8988
CA -48.3238 3.10892 52.9041
CA -12.1957 24.9834 41.8392
CA -5.931 -11.9596 73.348
CA -6.59911 13.9717 68.6771
CA -32.4133 23.2992 54.3428
CA -18.9291 28.4353 15.4982
CA -7.69508 22.0406 18.8521
CA -7.43147 24.3532 38.6636
CA -20.513 -1.77457 70.9272
CA -13.9328 24.3626 60.3452
CA -29.9922 11.6541 36.3449
CA -18.6356 37.4236 22.6142
CA -14.6402 25.5181 27.6934
CA -16.4413 11.4387 45.2115
CA -5.44358 -14.4386 52.9957
CA 2.61569 -18.4096 66.1911
CA -34.6914 17.55 71.4139
CA -8.76404 32.9677 29.3026
CA -33.8893 27.1941 52.6906
CA -13.4778 26.5544 21.9871
CA -30.5993 -9.9611 72.9357
CA -32.5097 24.8745 52.5814
CA -19.9325 35.9535 35.8227
CA -40.3603 10.6272 53.0963
CA -18.3956 11.8263 35.233
CA -15.0361 5.45206 34.3365
CA -5.62565 16.5467 40.5624
CA 0.425641 10.9464 73.2389
CA -15.702 -8.52249 55.0001
CA -14.0969 26.5229 82.5585
CA -32.3661 6.34458 37.8936
CA -46.8671 -8.53284 42.278
CA -28.781 29.6212 57.5556
CA -16.9214 20.5812 42.121
CA -10.9544 23.2308 23.3417
CA 5.56611 -1.44839 67.5019
CA 7.94098 -17.7027 60.3133
CA -6.17252 30.8187 32.0061
CA -39.8444 15.2096 61.5008
CA -6.57589 -8.74866 78.1869
CA -6.37076 -11.0955 77.2325
CA -22.4584 4.1416 78.4424
CA -30.0175 19.0458 17.9739
CA -35.0693 11.9303 61.1212
CA -0.083335 -11.2146 66.2216
CA -28.1938 14.1387 34.2946
CA -5.17513 24.833 40.9579
CA -11.2836 28.7568 26.5526
CA -24.577 25.1673 61.9619
CA 6.59426 -15.6056 58.1076
CA -30.7931 14.7228 42.2695
CA -29.936 0.49647 64.702
CA -25.2947 -13.8047 57.3485
CA -7.13352 20.6598 22.5601
CA -15.4579 -8.93979 58.9267
CA -25.3839 12.0496 25.348
CA -16.0064 26.8725 15.8322
CA -49.4732 -3.46395 57.8894
CA -21.289 -1.03825 78.6247
CA -34.6346 5.6768 38.839
CA -28.267 4.9154 48.8108
CA -35.2451 24.3694 46.1589
CA -44.1289 4.93979 37.1119
CA -50.28 6.85702 27.3422
CA -26.8684 20.3362 77.7018
CA -34.464 11.3197 36.9546
CA -32.5962 26.4087 44.182
CA -21.2157 2.97963 70.4658
CA -24.0568 -12.1226 59.6174
CA -18.6761 -7.93655 57.039
CA -27.2002 29.6932 53.0012
CA -18.1883 21.0723 57.095
CA -26.0631 18.7311 71.2925
CA -9.13293 35.7499 35.7066
CA -11.3179 1.64434 50.1305
CA -8.42288 20.5116 24.8673
CA -3.73057 -1.22237 81.4979
CA -3.32943 -14.6267 59.7543
CA -37.5598 1.23954 51.5218
CA -18.2875 5.45732 56.7647
CA -39.7243 16.4705 53.3176
CA -33.021 14.8588 40.1684
CA -14.4717 13.3681 71.4615
CA -18.2702 13.4695 39.9183
CA -0.290908 -18.4495 50.4736
CA -21.7386 9.5772 47.7293
CA -32.462 10.9592 37.136
CA 4.75432 -11.497 61.7715
CA -5.97502 -4.18978 81.484
CA -18.1886 16.8424 79.0049
CA 9.51149 -21.9446 64.4707
CA -10.3216 37.1997 31.8839
CA -26.5195 20.5767 43.1162
CA -5.14432 -19.9911 53.6416
CA -31.4243 24.3522 50.7183
CA -18.2065 9.08371 63.439
CA 1.12274 29.4142 30.8995
CA -35.0897 17.5002 26.2443
CA -31.437 32.8533 58.895
CA -21.8298 5.75712 52.5281
CA -28.6606 12.5297 42.6116
CA -14.6326 10.4641 60.5494
CA -15.3715 4.904 70.4772
CA -10.2201 6.5764 83.0266
CA -16.4997 11.7076 64.0123
CA -20.3673 29.2685 43.5097
CA -30.5971 -1.82908 52.8083
CA -24.04 21.5665 21.3028
CA -27.4988 14.4825 25.9609
CA -26.0076 17.1915 35.8732
CA -31.8592 26.8498 27.4316
CA -5.30634 5.17593 69.8511
CA -15.5059 31.6925 17.1292
CA -14.0677 0.797741 50.334
CA -15.2604 4.00919 37.1596
CA -27.6058 2.85095 52.5611
CA 6.47653 -13.2019 45.4925
CA -5.63262 24.7611 17.6261
CA -17.43 3.33296 75.7308
CA -28.6084 -5.42951 71.7326
CA -6.41504 14.2927 52.884
CA -16.9046 10.9947 48.6442
CA -21.7211 25.1562 19.5385
CA -25.39 -13.5112 50.5985
CA -33.7015 20.7027 26.1906
CA -1.04641 -9.47672 44.1799
CA -16.4996 -13.1005 65.9926
CA -10.7896 19.7164 40.3904
CA -1.72882 -16.7255 59.6647
CA -10.9674 8.86219 75.8322
CA -13.28 22.2858 44.4493
CA -2.21894 -14.1241 57.8695
CA -47.5858 1.65434 27.372
CA -20.1946 -2.79218 68.913
CA -30.6942 -5.6425 52.1959
CA -33.4006 18.3939 67.2809
CA -11.2504 27.5676 18.4592
CA -46.0864 2.62409 34.5616
CA -17.8845 19.9814 77.9992
CA -46.1289 0.69853 52.7543
CA -7.72836 29.5563 14.4729
CA -19.1663 29.912 16.8154
CA -31.371 6.49967 47.7401
CA -25.7074 5.21782 51.1448
CA -27.507 -11.6697 53.0724
CA -13.0549 19.2369 38.5175
CA -16.0147 7.18314 38.443
CA -12.4631 15.766 29.1953
CA -27.491 29.1843 56.2007
CA -17.7035 3.3418 52.9189
CA -7.77871 -15.7795 52.281
CA -18.4326 22.6581 58.9481
CA -17.8807 14.6869 62.6391
CA -28.6659 27.009 43.7254
CA -14.7284 21.8029 55.1057
CA -37.2417 5.39218 42.765
CA 6.97741 -3.17855 65.0809
CA -11.7185 15.0628 31.7284
CA -21.9105 8.40929 55.4317
CA -14.449 27.8362 19.7613
CA -26.1809 -9.40255 65.4449
CA -46.6082 6.66675 54.4134
CA -34.9309 7.26337 63.8212
CA -16.2655 0.47955 53.4376
CA -15.3511 28.9022 27.8648
CA -31.3303 26.6775 23.4338
CA -29.5047 -6.47729 58.4925
CA -11.3596 22.8673 71.1629
CA -17.306 -11.6524 75.1662
CA -44.1445 10.507 43.6417
CA -33.5504 25.4062 47.485
CA -37.218 14.4334 44.7742
CA -15.8687 14.7603 24.8189
CA 4.69898 -12.228 41.4003
CA -39.8839 22.1784 59.91
CA -27.8055 19.6911 20.9629
CA -16.7852 -5.98829 56.4064
CA -23.7784 21.9467 50.7827
CA -24.1715 -16.444 53.6669
CA 4.37914 -19.2009 60.2999
CA -14.9399 0.984601 80.0761
CA -36.4778 12.3411 35.0131
CA -17.9272 13.8186 74.2267
CA -23.6872 -4.58999 71.1251
CA -12.5022 5.99632 72.9822
CA -5.27291 12.186 70.6667
CA -28.0213 17.5275 73.3564
CA -7.62858 25.7011 40.0099
CA -17.1104 20.9697 55.4616
CA -49.0805 3.99919 34.1911
CA -33.3478 18.7186 23.74
CA -26.596 -2.16835 51.1406
CA -27.0251 4.97415 60.2057
CA -9.34395 -18.6957 50.5812
CA -23.2528 14.8416 34.8099
CA -8.43157 4.45872 83.2991
CA -30.2678 -2.28805 49.4883
CA -39.9311 24.2699 51.0027
CA -38.6 -0.481285 51.0631
CA -16.0151 32.9931 25.8774
CA -27.5198 -14.7021 67.026
CA 5.34018 -16.2984 52.5606
CA -24.4234 2.58909 72.9454
CA -48.0044 -5.52881 38.279
CA -19.7618 -14.9627 72.9337
CA -7.60013 9.39112 70.0951
CA -38.8358 22.5122 70.373
CA -31.3541 -6.36375 53.9473
CA -25.6822 1.00348 76.9952
