489

CA -13.3144 22.7735 59.8723
CA -33.8566 7.1992 29.6373
CA -28.2877 12.9201 49.2761
CA -19.6858 -13.6927 75.9853
CA -44.4764 -1.90344 52.0655
CA -17.1608 -4.53288 54.3358
CA -13.1031 5.13609 68.6602
CA -36.2088 23.0748 16.6098
CA 0.166825 -11.3446 44.282
CA -29.1573 11.1301 58.103
CA -12.1921 24.0081 70.3169
CA -3.40128 22.5733 36.6769
CA -8.07286 37.3586 30.578
CA -38.3679 3.16754 31.0474
CA -27.9292 1.84102 50.9723
CA -27.5606 0.396352 47.7698
CA -30.9086 30.686 51.8407
CA 3.9806 2.30238 75.9349
CA -13.0728 20.8949 66.8001
CA -41.0505 24.019 27.7309
CA -21.0484 16.5871 36.2384
CA -19.5033 17.8439 27.925
CA -22.4541 32.035 16.0584
CA -34.6529 20.1182 54.6319
CA -22.185 -7.27782 60.8296
CA -52.8718 5.11988 34.2845
CA -16.9508 0.217425 46.2956
CA -26.3651 9.27427 58.3966
CA -43.0463 -4.91101 62.5658
CA -37.014 13.5239 52.2952
CA -2.81058 12.6293 67.6658
CA 0.962241 -6.86495 39.6061
CA -34.0621 8.57431 49.0474
CA -39.2126 22.307 62.5114
CA -15.0721 25.4263 33.3834
CA -21.3037 7.5926 73.6571
CA -37.4522 -9.11156 62.7341
CA -15.0598 19.9862 42.1306
CA -18.3006 10.722 64.4303
CA -28.3644 17.0523 14.5481
CA -9.91857 -3.23125 64.7624
CA -12.7894 20.9618 69.4102
CA -25.0629 -3.0012 55.5084
CA -35.2967 12.5135 52.7422
CA -11.4542 -0.295326 51.6743
CA -3.87736 6.45693 77.7445
CA -25.3402 18.3802 49.244
CA -9.97342 -2.4262 75.4327
CA -0.460551 -16.3783 62.9188
CA -3.94802 -14.0912 49.3047
CA -16.615 -15.6331 78.1186
CA 3.79195 1.7721 73.6683
CA -29.4384 29.7571 51.3353
CA -43.9257 17.4299 74.4723
CA -38.0779 7.36588 42.903
CA -19.4659 0.336783 76.1781
CA -9.52534 21.8084 21.9255
CA -36.2951 24.5195 18.4242
CA 9.10063 -9.85332 63.1413
CA -14.7617 -12.762 78.1431
CA -36.8899 22.0634 70.3636
CA -24.7957 3.12304 53.1859
CA -4.23765 18.6899 48.0793
CA -1.04146 -10.6039 41.4109
CA -32.1797 26.8196 69.7726
CA -41.963 23.1893 61.9085
CA -12.8175 13.6676 67.5627
CA -15.2334 25.7829 43.9408
CA -32.7569 17.3751 68.6801
CA -25.1139 -7.58973 76.974
CA -23.181 18.7062 22.3268
CA -18.9482 9.76441 37.6355
CA -32.2529 14.2314 44.3892
CA -24.8675 23.6668 41.322
CA -18.6384 30.548 42.9344
CA -32.7044 23.868 67.5211
CA -26.1052 20.9694 31.4533
CA -16.0967 -13.7358 81.1328
CA -51.6071 -2.30798 46.7605
CA -26.2522 17.9822 47.5101
CA -3.33046 27.5306 43.1673
CA -23.3778 19.7796 40.0786
CA -25.5511 -9.95226 61.857
CA -16.4551 18.831 67.5952
CA -26.0399 11.372 53.2098
CA -7.86352 3.55028 53.7784
CA -3.7219 -8.07087 50.7971
CA -24.1954 -8.12561 62.811
CA -18.7936 21.474 64.2699
CA -5.33983 14.9104 67.7428
CA 3.14423 9.36854 70.7589
CA -30.6502 27.6036 51.4782
CA -16.5346 -3.83891 74.9112
CA -20.1094 -14.4474 77.5673
CA -32.6918 19.4728 52.9509
CA -3.91439 25.9855 42.3266
CA -27.1072 1.62671 52.9446
CA -19.9801 -10.7853 63.0275
CA -4.83141 13.4157 64.159
CA -35.723 18.1586 67.8386
CA -43.2925 1.38569 43.5408
CA -18.0318 8.37206 47.6594
CA -18.1415 0.695266 50.8881
CA -28.583 23.6817 43.1797
CA -38.1913 22.2965 24.4472
CA -21.3251 -5.34688 72.419
CA -18.2695 18.7488 32.9136
CA -35.2049 -4.97456 55.4799
CA -4.93441 8.90497 77.9781
CA -14.4227 -0.752064 70.0512
CA -29.7255 -20.2639 50.7375
CA -8.34291 -5.04674 61.727
CA -40.0346 8.71417 54.4148
CA -16.9322 26.8399 32.0638
CA -46.5628 3.03683 35.7008
CA -13.121 20.3642 20.2032
CA -19.1987 15.4925 43.2448
CA -17.6847 9.63806 71.3271
CA -10.512 -9.35103 57.385
CA -24.6658 16.7285 28.2159
CA -7.52333 19.1531 21.5086
CA -17.4073 7.6102 71.9503
CA -17.6998 12.8339 77.576
CA -7.80924 -7.63165 83.4671
CA -4.00607 11.2941 76.9857
CA -15.4198 -8.01309 74.959
CA -15.1846 34.2797 16.8293
CA -23.0596 14.919 43.4212
CA -4.12937 -10.7371 46.8194
CA -20.8309 19.3519 16.9176
CA -23.9095 -6.18578 61.9361
CA -11.071 -5.50991 59.9117
CA -18.812 1.26295 38.843
CA -54.2163 1.34939 33.7346
CA -40.0624 -6.695 61.1873
CA -15.3057 6.18775 70.8961
CA -25.4032 7.84682 69.0648
CA -2.13002 2.21629 66.5615
CA -27.9812 -8.78641 69.1183
CA -37.7717 -1.70256 56.4441
CA -9.00308 30.1761 32.6726
CA -16.9937 -2.79158 54.8539
CA -37.003 22.4373 23.0764
CA -21.2585 1.60013 73.1972
CA -35.7585 20.5839 57.3274
CA -16.0105 -21.5402 76.5695
CA -4.54205 19.5371 65.8109
CA -28.2289 -14.26 68.4966
CA -21.5385 1.25433 53.3739
CA -14.2987 5.98745 64.264
CA -12.3483 33.8855 38.2698
CA -24.4233 -8.01171 67.2512
CA -44.0971 4.51326 43.1786
CA -26.854 14.3499 47.2685
CA -29.475 6.31973 30.6972
CA -25.8076 29.427 55.2577
CA -22.153 2.56561 55.4114
CA -31.4213 22.7676 57.5263
CA -35.2915 21.9016 20.5203
CA -25.8401 10.6707 50.2317
CA -44.9889 2.58109 52.758
CA -2.30612 22.3786 38.6406
CA -39.7 19.8618 75.6437
CA -26.6558 3.55941 50.5231
CA -27.2208 -6.86137 70.5798
CA -20.408 16.8818 40.3841
CA 3.47417 -2.32012 69.3718
CA -16.824 16.1196 73.868
CA -29.242 12.1048 44.2646
CA -20.7856 -1.34255 74.9444
CA -4.17497 19.4843 41.2344
CA -29.1392 -16.6939 52.1316
CA -19.6689 -0.0959025 56.4041
CA -11.9733 27.7127 34.5645
CA -13.2996 30.0636 18.8454
CA -33.6997 12.451 60.1066
CA -17.0495 12.9803 50.3284
CA -10.7665 1.29123 50.2546
CA 4.84585 -14.1744 47.6679
CA -14.6097 17.6884 41.3284
CA -23.1749 -2.553 78.8796
CA -37.3792 -12.649 62.4361
CA -18.7657 10.9802 41.622
CA -19.5217 6.46243 51.2294
CA 2.57233 -11.8111 41.5838
CA -15.6146 0.844601 55.7448
CA 1.36945 -11.4161 59.2349
CA -18.4154 -10.7695 67.4699
CA -26.3616 -8.37842 66.9055
CA -20.0912 19.0594 13.024
CA -3.67325 16.0101 67.5459
CA -1.25528 21.7787 32.6357
CA -27.2002 18.5833 18.4306
CA -32.3885 17.1582 15.6255
CA -42.9447 6.91742 38.0416
CA -8.22728 -10.975 57.4587
CA -18.3545 25.0026 20.5474
CA -30.9061 15.4409 36.6721
CA -9.87671 -2.44401 77.7355
CA -1.53658 -18.4475 63.7607
CA 2.49302 6.13178 74.8538
CA -4.19414 -6.29164 82.9
CA -33.7835 24.0917 57.3973
CA -11.0721 35.2275 33.135
CA -26.8675 19.721 50.0756
CA -26.6706 31.3876 16.2543
CA -40.196 2.46831 56.2103
CA -21.3473 10.8899 72.0011
CA -28.359 22.2731 32.0676
CA -29.2533 -6.50758 59.8314
CA -33.1694 -15.6682 66.2972
CA -26.4855 -11.9418 51.8157
CA -17.7496 -1.44272 51.7541
CA -18.6637 -3.05521 73.5382
CA -36.0777 23.1448 54.5935
CA -47.331 3.97752 31.7893
CA -35.9348 20.2862 16.5098
CA -31.2881 -8.03091 59.349
CA -7.24012 21.3367 18.8162
CA -9.80908 -0.197935 78.0796
CA -22.8984 -16.7319 68.1017
CA -17.2304 27.6528 30.3253
CA -1.45829 -2.24089 74.562
CA -29.8392 -3.23261 53.5701
CA -18.0485 7.72718 57.089
CA -30.8969 23.5108 73.8204
CA -25.3628 -1.18958 58.1074
CA 4.88803 -1.85007 73.5495
CA -24.0782 -6.91969 59.6628
CA -25.6403 -16.4988 67.2436
CA -5.06557 -20.877 59.1779
CA -15.7988 6.28538 36.6014
CA 2.85927 3.23779 70.852
CA 0.859365 0.64448 74.3498
CA -11.627 15.4197 17.7227
CA -16.5348 31.7331 16.064
CA -21.4747 29.4388 23.6906
CA -25.6181 -5.28696 55.0673
CA 5.90629 8.50861 71.5105
CA -33.439 7.03534 33.1198
CA -3.36918 -7.80638 44.0707
CA 2.93171 -12.3064 56.6146
CA -14.6748 22.7645 57.7751
CA -17.4552 -12.4231 79.9887
CA -17.498 19.0925 39.774
CA -33.5559 23.9158 72.2557
CA -15.1375 18.4452 38.867
CA -12.2309 -9.55264 85.126
CA -4.67047 15.082 62.917
CA -20.3236 18.1164 23.7177
CA -14.5769 -23.03 78.3065
CA -24.2229 7.64128 52.8035
CA -29.8942 -3.89992 55.7368
CA -21.0747 -9.62935 75.6335
CA -22.3914 -10.7356 50.0415
CA -51.0564 -0.52943 47.2123
CA -27.2429 -7.24116 53.6562
CA -29.7562 25.4807 55.2916
CA -11.4367 -2.52769 63.1959
CA -29.9672 0.164754 55.167
CA -31.1228 24.4369 56.5485
CA -30.1063 12.9001 40.2982
CA -20.182 11.9138 55.0252
CA -23.8913 2.03455 58.3189
CA -24.0498 11.7971 63.6426
CA -26.7139 -5.27702 79.1653
CA -7.16465 20.3691 49.2475
CA -33.5527 26.788 54.3338
CA -17.4217 -5.27939 70.1865
CA -12.9807 1.55129 66.9713
CA -34.8854 15.3773 46.7739
CA -39.5188 -2.64634 61.631
CA -43.1465 3.5399 60.6741
CA -13.7417 9.36013 51.6989
CA -40.6991 5.60685 57.4851
CA -23.2535 12.6768 39.1264
CA 1.44339 21.3914 34.7541
CA -40.9085 8.1165 44.353
CA -29.3236 19.6676 31.1087
CA -24.9388 20.5546 38.7459
CA -33.2968 -4.00536 52.5049
CA -12.1957 24.9834 41.8392
CA -33.2898 6.69282 42.7851
CA -5.57897 -11.2007 55.4302
CA -9.50442 31.4515 16.9108
CA -13.8218 8.86369 77.4235
CA -22.8639 8.66654 77.1366
CA -13.9181 35.5479 37.296
CA -7.36267 16.9625 15.6862
CA -23.4779 -8.84473 53.5558
CA -23.687 -8.36946 70.958
CA -2.60165 -15.6036 50.7506
CA -19.5392 -14.2359 68.5028
CA -4.24552 14.5952 13.7927
CA -28.9306 3.62878 56.8142
CA -31.7218 32.5022 53.4063
CA -2.17337 -10.5413 60.0429
CA -16.8386 10.1796 49.0565
CA -26.2853 -7.02475 68.2041
CA -41.5672 -2.29543 55.233
CA -33.6147 -7.00929 53.6576
CA -7.0405 9.41488 37.576
CA -3.8957 37.3425 28.1974
CA -0.25326 0.698856 76.8468
CA -23.3512 4.70056 53.8456
CA -29.6352 -7.98889 52.4202
CA -22.7754 -7.28454 63.7609
CA -14.7119 11.3156 66.0184
CA -17.2623 2.63845 48.6156
CA -8.47232 -13.0059 39.462
CA -34.7889 5.73058 44.4549
CA -23.1783 -0.809711 75.944
CA -36.5231 10.6424 55.7116
CA -10.5692 7.69558 37.3195
CA -11.7514 -2.64008 75.7821
CA -11.2383 -1.09084 77.2918
CA -28.9421 18.5355 36.1635
CA -27.2578 25.0526 40.3846
CA -17.6475 15.084 64.1664
CA -30.2834 19.3391 16.4649
CA -38.7967 22.5712 65.0603
CA -16.0406 -0.443006 49.8686
CA -8.93926 35.3491 37.2566
CA -9.15272 18.3103 20.2702
CA -34.6341 -11.1843 67.0839
CA -0.536967 -5.83712 79.7235
CA -10.2802 28.2469 27.6051
CA -34.2461 4.31977 47.782
CA -20.7246 12.8413 30.2132
CA -16.2234 -0.448324 57.8854
CA -10.9466 2.07538 66.5609
CA -38.339 -3.86925 56.8111
CA -10.5823 11.5312 71.0587
CA -7.13352 20.6598 22.5601
CA -0.786946 1.84542 69.5284
CA -30.8421 8.77204 40.1363
CA -12.7819 1.06633 48.468
CA -33.2698 24.6775 20.6986
CA -30.3474 13.5764 33.9894
CA 5.77618 -11.5268 59.5045
CA -22.4912 13.782 72.7266
CA -11.4648 5.68408 67.3776
CA -10.2084 4.05864 50.9456
CA -21.785 22.9095 19.2476
CA -23.4632 14.3334 61.4958
CA -15.8875 13.7881 79.12
CA -32.4612 -4.65417 59.4978
CA -14.2658 28.51 42.1585
CA -29.4971 -6.72896 51.0136
CA -14.3978 28.1307 16.7526
CA -34.4429 -15.1453 67.7845
CA 3.5451 -10.4696 39.8135
CA -13.054 18.543 65.2899
CA -1.63294 4.18052 75.7633
CA -26.6425 -3.07587 77.9034
CA -16.7162 -5.55477 49.6799
CA -9.6655 30.6217 40.5488
CA -16.0529 8.13778 46.12
CA -4.3845 -6.1307 80.3382
CA 0.865746 -11.3033 56.2243
CA -16.9821 26.9598 21.1375
CA -18.0426 21.3582 19.0297
CA -7.49066 27.762 29.7562
CA -26.5369 15.6721 14.6416
CA -19.0895 15.4835 76.4927
CA -23.9847 -3.71717 58.8756
CA -5.5141 21.6702 38.3647
CA -22.6515 15.1303 38.5205
CA -5.97502 -4.18978 81.484
CA 0.783152 18.3358 50.5411
CA -42.9796 9.08492 38.9648
CA -44.2692 24.8981 58.2376
CA -18.7828 14.0826 62.242
CA -5.52541 9.05988 75.1155
CA -26.1038 -18.8176 52.9388
CA -32.5456 -2.51992 51.1506
CA -28.5218 21.9025 38.3781
CA -12.1859 25.3395 36.9048
CA -24.233 -5.44802 79.4851
CA -18.0809 18.3608 42.3136
CA -53.2419 -0.0467612 30.2682
CA -41.2228 23.6507 57.8169
CA -14.4414 34.3062 32.2456
CA -13.3837 1.02147 64.4775
CA -14.4964 18.2141 37.1149
CA -1.85472 26.8364 29.6233
CA 1.05942 12.0201 64.2438
CA -25.9881 20.1124 18.6327
CA -28.1648 21.3416 42.0862
CA -35.8044 -5.51701 58.3226
CA -17.4354 4.49765 50.66
CA -16.3825 7.92235 67.6917
CA -28.2089 12.2882 25.9843
CA 4.26912 9.89892 74.1629
CA -35.4026 16.885 73.3741
CA -31.1592 12.8734 42.7024
CA -5.19694 25.2434 27.0829
CA -44.6351 -1.60522 63.9978
CA -8.89392 26.1444 40.9006
CA -17.2562 20.8659 63.4817
CA -15.4507 12.1656 45.2358
CA -15.5078 -8.10495 53.8368
CA -21.7211 25.1562 19.5385
CA -28.4948 -7.01512 49.4258
CA -17.4013 11.1841 47.1309
CA -8.99934 30.7532 27.795
CA -28.6281 10.4734 39.0912
CA -9.93899 13.4697 69.5971
CA -35.7014 7.43895 31.4174
CA -2.04522 -11.0197 47.831
CA -10.4379 -1.21927 80.0269
CA -48.8366 1.58886 43.1646
CA -27.2731 22.451 17.2547
CA -24.2805 9.00093 72.9037
CA -3.11368 -15.6909 52.6938
CA -38.7655 26.017 59.6413
CA -11.2504 27.5676 18.4592
CA 5.28194 -11.8119 43.4364
CA -13.1385 7.70604 63.9765
CA -13.6066 25.1407 44.4715
CA -26.0682 5.55548 56.5173
CA -19.1663 29.912 16.8154
CA -50.8909 2.56459 29.2589
CA -25.7074 5.21782 51.1448
CA -38.1711 12.045 57.6875
CA -3.40205 -16.5014 62.1433
CA -28.5862 16.8647 25.1284
CA -1.97205 22.9517 43.5286
CA -33.1335 -13.8101 67.5817
CA -24.6778 15.5772 19.7642
CA -30.5058 11.6997 33.935
CA 7.1723 -10.8612 61.8243
CA -22.3776 -5.87448 49.4517
CA -23.4154 10.1853 58.6287
CA -22.6349 18.0806 9.07866
CA -24.0467 19.1828 51.6509
CA -18.7635 9.396 40.0486
CA -0.0584101 18.4888 38.131
CA -19.6471 6.99305 44.4427
CA -1.86822 -5.2523 81.2061
CA -10.3664 -8.71225 45.0676
CA 1.53123 16.4565 65.7186
CA -11.6693 4.3411 81.0924
CA -16.2655 0.47955 53.4376
CA -11.1367 -1.12094 82.8681
CA -16.6915 8.46832 74.2167
CA -14.4098 7.92489 72.5113
CA -12.2757 22.9525 43.2833
CA -29.0523 18.3817 49.1749
CA -20.9318 -3.35149 55.9515
CA -3.32065 24.9863 27.3065
CA 0.693479 -9.21079 61.3376
CA -11.2277 21.9141 20.505
CA -18.054 16.5844 14.5543
CA -20.5966 -6.03206 61.4471
CA -25.9889 -16.3881 63.7738
CA -20.2373 3.38581 69.8825
CA -15.9772 7.47952 76.2048
CA 5.53375 -11.7989 67.2344
CA -14.608 -4.50841 57.2174
CA 0.8743 -15.8859 53.9841
CA -21.5226 14.1189 61.1872
CA -17.3129 -17.0486 79.7041
CA -20.9827 14.6261 76.5691
CA -43.1485 1.26552 51.9298
CA -31.4381 14.4955 61.6432
CA -16.3874 20.4956 60.4107
CA 5.01074 7.43489 72.6893
CA -45.7835 1.58125 47.0943
CA -6.8084 -11.4246 43.1894
CA -6.6657 11.0033 72.5462
CA -29.2565 -10.4628 61.2988
CA -14.385 -6.22376 52.5691
CA -29.8171 26.8439 65.8527
CA -0.087123 21.2359 47.0076
CA -34.222 -6.79859 57.7455
CA -31.6099 -1.89152 56.9838
CA -22.5107 12.5805 45.1558
CA -31.8659 18.4152 18.6441
CA -18.7805 19.0415 16.3252
CA -20.5012 1.26802 36.6389
CA -3.38359 7.67291 69.526
CA -14.8908 19.9351 65.8127
CA -1.03023 6.33093 75.9818
CA 3.27324 -13.488 65.3014
CA -13.646 0.528182 75.6047
CA -16.275 -6.4829 74.0104
CA -24.2852 20.8965 11.3538
CA -31.6172 -13.3317 59.807
