489

CA -14.2593 -9.55818 80.0122
CA -31.3082 15.45 61.4163
CA -23.6365 14.4001 26.2549
CA -24.5879 19.4455 4.95812
CA -29.198 1.66477 54.6975
CA -26.4389 -17.3813 57.1876
CA -43.2763 22.5153 56.1807
CA -32.9002 10.2632 58.8725
CA -38.0605 36.7622 46.942
CA -9.89698 9.59028 65.0471
CA -25.5387 -3.38586 72.2324
CA -17.2169 -1.14327 60.4516
CA -7.31037 2.19945 61.1944
CA -36.853 28.1527 49.482
CA -27.9292 1.84102 50.9723
CA -16.0057 32.8765 43.455
CA -1.51928 -14.3544 64.5205
CA -36.1449 5.62345 57.6286
CA -41.9434 -2.49486 61.0574
CA -25.3052 9.31972 41.7204
CA -44.9518 1.30424 29.4317
CA -54.4057 1.38624 39.9899
CA -24.0854 23.8299 26.513
CA -18.0299 31.532 17.5924
CA -37.8329 12.4834 56.3162
CA -32.1313 14.8573 34.4872
CA -46.3708 3.19112 37.572
CA -24.2374 7.90732 47.8014
CA -24.1757 -12.9231 50.1586
CA -22.9252 20.8051 77.617
CA -18.2588 10.6731 73.0961
CA -36.8771 14.8323 69.1746
CA -19.3255 5.90005 55.0888
CA -14.0961 25.2792 40.6412
CA -2.05248 16.1203 72.8298
CA -16.4169 28.0136 18.6004
CA 1.87765 -10.0036 44.8215
CA -21.7608 -10.6771 46.6339
CA -17.8246 12.0368 79.9671
CA -38.2068 7.99306 48.3638
CA -45.5402 -4.68643 63.8124
CA -5.00684 19.58 43.9615
CA -12.3149 8.09699 43.2412
CA -1.37612 -10.8171 42.8657
CA -7.98258 29.9918 33.375
CA -35.2056 -5.33837 61.1571
CA -27.9751 19.2664 18.3083
CA -12.7643 0.650916 63.232
CA -34.6823 14.0403 49.027
CA 0.444448 -8.31475 52.7854
CA -3.84215 -16.8982 53.5224
CA -33.0935 1.72148 48.7107
CA -45.1813 9.12094 42.9295
CA -23.4871 -10.5218 59.4164
CA -35.9822 9.45394 52.9683
CA -8.23468 17.8761 18.6426
CA -11.2519 -0.425548 55.6433
CA -34.9445 22.3523 73.936
CA -15.4253 20.5338 65.0443
CA -17.437 37.5084 18.8292
CA -33.6817 -7.47215 60.4784
CA -23.0747 10.0528 67.6089
CA -25.0344 0.313238 43.5242
CA -2.82517 23.3949 15.9223
CA 6.91421 -9.94273 39.8016
CA -3.56134 -1.43993 85.6326
CA -14.5207 23.7681 42.5878
CA -21.1055 -6.56683 61.4343
CA -10.0574 20.4274 66.8391
CA -24.6389 11.6581 23.5751
CA -26.439 14.4283 32.2071
CA 0.419523 -9.51275 39.7205
CA -18.9438 15.4691 37.4831
CA -25.7003 -9.27695 75.2428
CA -8.74041 4.76767 74.9025
CA -23.8814 10.9638 15.1135
CA -14.144 22.7942 22.2425
CA -39.3866 3.07476 61.1114
CA -7.70154 14.7876 43.8274
CA -18.3836 18.5525 68.6906
CA -19.7722 21 12.1393
CA -24.6509 25.4473 28.5049
CA -39.4092 28.419 57.7631
CA -17.2816 24.4627 76.3622
CA -37.1212 -0.527883 48.3953
CA -16.5984 27.2217 16.9175
CA -1.08739 19.3792 33.3391
CA -3.8785 2.63296 74.2239
CA -22.4848 6.65 48.0625
CA -14.9006 13.6823 81.5921
CA -4.64706 23.2961 18.7588
CA -27.3137 -9.51594 55.3294
CA -36.007 15.2666 57.2965
CA -25.3873 -13.5337 56.6438
CA -23.6512 -8.7948 60.1524
CA 0.758 -11.7448 51.8501
CA -38.1319 0.442416 57.0252
CA -27.2122 6.06727 45.6183
CA -23.0978 6.84958 56.8538
CA -47.0477 12.5112 44.6694
CA -43.2925 1.38569 43.5408
CA -27.8825 24.2702 30.1905
CA -5.12541 -10.6678 58.549
CA -18.0576 18.6032 22.2703
CA -21.2098 -8.68147 68.1451
CA -13.5733 0.332943 58.4229
CA -39.3534 -7.20366 53.0059
CA -26.0399 10.4419 54.0489
CA -37.4649 36.0946 51.3299
CA 0.737893 -7.89594 48.1202
CA -9.64356 1.82753 74.3207
CA -43.4694 -2.07617 54.1491
CA -40.9319 12.9786 40.3266
CA -10.4385 21.7116 21.1072
CA -32.0943 5.77254 56.0344
CA -14.4781 12.9622 64.2622
CA -6.03167 29.97 38.0651
CA 1.64612 3.84746 74.4246
CA -13.4538 -5.31502 64.4353
CA -36.4671 13.7715 45.3888
CA -21.7719 7.59655 38.7207
CA -30.7487 38.8017 49.2732
CA -38.9529 8.75419 50.9757
CA -45.3905 -1.41669 38.4957
CA -31.8014 13.0783 61.1691
CA -15.4198 -8.01309 74.959
CA -20.4614 19.2993 81.198
CA -37.2832 24.1963 76.1666
CA -1.05115 18.9803 31.4885
CA -29.7432 -4.524 55.6533
CA -10.0594 -8.68534 83.797
CA -19.0274 25.3979 17.2186
CA -13.305 -7.19396 88.0796
CA -21.0931 -2.39325 57.1744
CA -0.147624 -13.6908 38.7627
CA -18.8335 11.3855 42.6637
CA 1.39496 16.9207 49.6719
CA -16.9121 -0.0843353 46.7178
CA -32.7512 23.1986 74.5623
CA -36.9363 28.6949 52.7142
CA -39.2736 -0.0472192 63.9692
CA -29.5496 13.3359 59.1519
CA -19.0105 27.8563 18.6908
CA -43.5965 -1.6717 33.8835
CA -12.6892 11.5847 69.8261
CA -29.9958 5.25261 51.7413
CA -41.2727 9.1804 42.557
CA -13.5283 9.52788 45.4349
CA -15.8403 25.4785 75.4898
CA -23.6313 -9.41464 62.7862
CA -43.8934 16.8103 44.7919
CA -29.6038 -12.9168 51.9172
CA -47.5221 -2.47018 38.7954
CA -8.45713 8.10067 67.83
CA -38.8437 18.764 61.2914
CA -8.37377 -0.285272 61.6444
CA -17.1922 27.2212 20.7389
CA -39.2945 -2.67061 54.8687
CA -15.3325 9.40823 41.646
CA -32.022 14.9882 51.7944
CA -20.718 20.2899 7.77871
CA -0.716781 14.7342 32.6105
CA -10.6462 18.9101 21.7885
CA -38.0593 3.86987 46.9594
CA -27.1415 -7.08251 74.3172
CA -32.3653 -4.90681 55.1426
CA -19.8241 21.7669 16.1712
CA -24.5619 14.143 17.5149
CA -28.7831 -0.63333 58.9998
CA -33.1947 -14.4408 50.5486
CA -21.8518 16.0901 60.0933
CA -40.3241 36.4034 49.3166
CA -24.2596 19.342 37.1139
CA -12.8281 -14.5706 65.6552
CA -16.3508 12.5534 78.8505
CA -9.33438 32.5527 31.3655
CA -5.8977 6.10151 76.8771
CA -24.448 -9.3147 53.6663
CA -27.0627 1.69686 60.1566
CA -0.0868023 17.2575 74.6722
CA -26.0431 25.7058 25.0499
CA -31.6268 -5.34774 66.0439
CA -14.5747 -21.2034 71.5646
CA -17.4472 -5.33526 47.0744
CA -31.9779 32.1838 50.2945
CA -5.57664 -1.17728 57.9527
CA -21.5958 4.32021 50.537
CA -27.6451 4.00413 54.6514
CA -35.8242 -3.04762 61.3145
CA -30.2877 12.2336 61.7983
CA -3.67325 16.0101 67.5459
CA -21.6589 -5.55717 51.7212
CA 2.33958 0.0169982 80.1911
CA -37.6596 4.05063 58.8518
CA -43.2439 7.7852 52.3129
CA -40.887 -3.51516 52.5201
CA 0.73387 0.0158909 70.9643
CA -46.3914 6.2185 53.809
CA -17.0818 4.27409 40.1701
CA -21.1725 -5.50381 46.7077
CA -35.4398 -3.1327 65.4626
CA -36.8924 -0.895999 61.5654
CA -37.4685 3.88848 43.8722
CA -24.978 14.6707 40.9015
CA -32.0052 34.6935 50.8651
CA -25.1102 -5.63125 71.1305
CA -22.8812 18.4974 77.7046
CA 6.04116 6.44881 68.7012
CA -19.4127 22.2556 10.4924
CA -1.24548 16.1201 46.9532
CA -28.3325 8.15732 44.3407
CA -25.4307 4.28707 42.4792
CA -11.9511 17.755 69.4395
CA -19.2525 25.2859 43.7747
CA -16.7825 -24.0086 74.1523
CA -10.885 -18.6794 53.4155
CA -13.4974 -7.16496 62.8107
CA -2.28447 17.3833 44.5649
CA -25.1439 19.7181 20.6354
CA -12.4363 31.6542 44.1688
CA -1.19866 -11.8234 65.7292
CA -33.9657 15.4254 32.8552
CA -40.8285 3.51102 46.3541
CA -16.7779 23.7084 44.9367
CA -30.1483 -1.80081 58.7986
CA -23.7282 17.5392 25.8598
CA -1.11977 0.93293 87.4505
CA -29.7028 -2.77954 61.927
CA -24.7055 10.4372 68.7241
CA -26.4776 -8.01488 71.5329
CA -36.2202 39.9685 44.9446
CA -38.5617 21.8669 64.6224
CA -17.9553 13.8414 62.1565
CA -2.33754 20.9011 49.3073
CA -14.2513 6.62041 66.8551
CA -7.20395 23.5638 18.9306
CA -33.6633 11.8956 45.0397
CA -24.8373 0.282303 56.9255
CA -10.8233 -1.90573 73.1409
CA 1.57289 9.84315 73.223
CA -33.114 20.2641 70.2358
CA -4.24223 20.7748 38.9608
CA -27.7447 11.2276 56.9059
CA -17.3301 -20.2923 76.1088
CA -15.7231 18.8103 10.058
CA -39.7069 8.31868 59.5491
CA 3.21898 -10.7851 51.5147
CA 2.64196 -7.21658 39.0627
CA -23.4615 6.84124 52.2575
CA -45.0889 -3.37585 32.8005
CA -55.0369 3.89083 41.2965
CA -26.0378 10.4902 58.525
CA -17.643 19.2293 62.4144
CA -17.6089 35.4957 44.9728
CA -55.2389 2.3957 34.0705
CA -46.2014 -5.51056 35.5992
CA -4.51544 16.3223 15.0208
CA 5.82282 8.05832 70.3864
CA -12.5406 14.1176 27.921
CA -10.9519 -10.1298 64.1774
CA -21.2479 21.6723 77.204
CA -25.3353 7.88516 50.8826
CA -9.56724 33.3509 42.3034
CA -30.4932 7.18887 41.4237
CA -20.6256 -7.70498 48.6533
CA -26.7959 1.9534 56.5643
CA -8.97378 11.4571 42.5543
CA -25.7181 12.1738 59.1517
CA -38.8737 12.1828 51.1942
CA -52.0079 -0.960161 39.4376
CA -4.32167 14.722 45.7719
CA -33.3478 19.1444 19.4849
CA -21.9491 9.15925 47.4604
CA -29.9227 13.4659 19.7727
CA -7.31481 -15.3866 52.1958
CA -26.9327 -3.73557 74.0082
CA -0.924 18.3534 38.704
CA -16.1688 -16.9366 76.6737
CA -21.4827 38.3436 47.5055
CA -8.07839 -13.1465 56.7435
CA -28.7683 -3.93568 51.916
CA -11.9431 20.2602 24.4181
CA -47.5373 -4.62047 66.7808
CA -25.9338 2.81539 43.7076
CA -31.658 11.6204 63.2755
CA -13.3183 25.6604 43.8351
CA -13.116 2.90308 54.4322
CA -34.3391 17.5392 32.466
CA -23.9843 -2.89949 55.8206
CA -25.81 4.3759 56.226
CA -22.6577 -17.2303 84.5895
CA -14.3391 14.4999 73.4949
CA -14.4738 8.26873 81.4241
CA -1.74288 5.57181 70.6257
CA -25.0846 16.8746 35.8805
CA -28.1803 -12.3426 63.4813
CA -35.943 29.8803 49.0319
CA -25.9776 1.27506 49.1293
CA 2.57673 2.53442 73.547
CA -46.2152 -6.50886 66.9209
CA -23.6169 16.1004 24.328
CA -17.4669 34.9882 19.6652
CA -39.4445 30.0794 56.0244
CA -28.3362 13.3357 27.2472
CA -22.5099 -5.11599 65.5803
CA -44.2536 3.28573 42.4418
CA -33.5511 18.8075 71.49
CA -15.9468 31.735 18.2657
CA -2.48868 -8.21162 56.1936
CA -20.254 9.64613 50.6169
CA -26.5972 1.88658 62.1157
CA -25.5782 -12.8835 53.5888
CA -6.57884 15.2666 11.1007
CA -3.7668 19.0292 52.3708
CA 9.32042 -12.4101 47.5347
CA -29.2481 0.629275 57.1842
CA 4.15587 -10.3085 43.6808
CA -36.5091 16.347 59.462
CA -8.0844 -10.9813 64.9942
CA -23.4501 13.3801 36.7574
CA -7.17283 25.8785 15.5009
CA -23.2883 -10.6368 52.1462
CA -18.7591 8.02413 53.4068
CA -12.412 19.7625 68.7734
CA -32.9145 -5.82662 53.2238
CA -23.7179 5.92759 49.7636
CA -18.1448 13.1659 42.8353
CA -39.0449 18.7043 41.7802
CA -21.9642 21.8084 23.5436
CA -37.5483 2.0829 44.2716
CA -30.5931 -0.484556 61.3483
CA -29.6602 -9.32716 75.5973
CA -0.524665 -14.5277 52.4298
CA -17.7667 12.4466 82.8914
CA -26.8505 -10.7585 54.01
CA -8.03047 16.1012 16.6673
CA -37.7371 31.555 47.4246
CA -1.39615 -16.6882 53.7633
CA -1.45593 3.90965 80.3494
CA -39.1956 5.60711 39.8333
CA -3.81583 14.5773 72.919
CA -28.0728 -2.54382 60.4629
CA -29.3898 10.8339 34.3693
CA -6.25448 19.0728 65.3687
CA -19.9014 20.3761 76.6417
CA -8.73149 34.8386 27.7042
CA 4.26003 7.54702 69.3694
CA -42.2044 28.7032 58.487
CA -3.83787 14.5192 70.1591
CA -18.7492 19.2026 6.84556
CA -36.741 22.6538 66.9326
CA -33.9008 10.5728 46.5642
CA -22.8611 -5.16425 55.8798
CA -17.0625 -3.49149 48.5361
CA -55.1704 -0.62001 37.7583
CA 2.01115 15.5922 47.5993
CA -40.822 -4.14255 56.8577
CA -4.40318 9.57811 72.4632
CA -37.8856 -6.39894 51.3512
CA -37.8648 7.11214 54.6084
CA -2.10145 1.32494 70.6302
CA -11.9853 8.77031 67.8303
CA -32.9825 18.5676 77.4083
CA -27.6027 0.649393 72.2636
CA -46.5722 -0.206646 65.9803
CA -41.2589 30.6398 55.8025
CA -23.1924 15.7374 21.2372
CA -34.1765 -5.92005 66.5952
CA -55.6797 1.68092 38.7283
CA -14.8669 14.6337 77.0114
CA 7.22144 -8.94132 53.2612
CA -21.6932 11.4908 70.6888
CA -30.727 35.025 55.2942
CA 0.241489 13.5798 70.1292
CA -15.9137 32.2391 47.2284
CA -45.8741 5.28304 32.2832
CA -42.9808 11.99 41.276
CA -28.4146 5.50865 55.2889
CA 0.900594 16.1244 73.1571
CA -18.7667 31.0516 47.448
CA -46.2324 -2.27184 63.1326
CA -41.2228 23.6507 57.8169
CA -13.0319 -6.20512 84.851
CA -23.5559 19.4997 27.7661
CA -8.22729 -2.19814 82.0988
CA -27.1162 -13.3765 55.0639
CA -13.375 -4.39027 61.6869
CA 3.81097 1.18871 81.6999
CA -41.218 17.7012 42.2058
CA -41.9935 8.4524 38.0375
CA -15.9229 -11.8608 78.9817
CA 2.59427 5.00199 79.7459
CA -13.8485 13.3782 78.1015
CA -9.86892 -4.11494 63.1703
CA -19.2078 23.5682 12.4565
CA -22.2055 -9.90766 61.6653
CA -15.8629 0.571632 48.7297
CA -44.6351 -1.60522 63.9978
CA -25.7654 -14.0553 51.6149
CA -32.5881 11.2585 48.2025
CA -22.3442 20.2138 22.6207
CA -0.225933 -9.41548 42.5439
CA -11.7433 -3.57881 67.0037
CA -3.86902 -14.11 62.5966
CA -12.1605 14.7395 64.2908
CA -11.6809 -4.93028 73.6109
CA -23.5977 8.25124 50.0555
CA -25.7939 -6.08458 73.4793
CA -12.3388 11.0715 63.2391
CA 1.64634 3.72582 78.0361
CA -38.2655 21.0619 60.3905
CA -48.8366 1.58886 43.1646
CA -37.7108 35.1105 49.0728
CA -19.5158 8.25299 40.4386
CA 2.92294 18.2127 48.6265
CA -38.7655 26.017 59.6413
CA -16.8641 -0.925433 48.4558
CA 5.28194 -11.8119 43.4364
CA -20.5217 -1.0922 55.1053
CA -24.2562 10.9138 57.4942
CA -9.1299 32.1655 40.2023
CA -19.1663 29.912 16.8154
CA -3.07195 11.4967 70.8266
CA -33.2881 17.0324 51.6347
CA -31.6833 15.0956 16.1245
CA 2.86383 13.9039 66.6688
CA -11.829 18.0368 42.6182
CA -41.0943 23.2409 75.9258
CA -8.69082 -2.89126 84.2645
CA -20.2215 11.2674 77.5837
CA -27.0356 4.25339 71.6041
CA -36.7654 29.308 58.5311
CA -14.9149 -19.4811 76.2086
CA -13.9488 0.51994 45.1812
CA -20.6226 33.7944 46.8581
CA -26.1716 -0.0491223 47.2382
CA -4.77582 -9.20363 59.6829
CA -34.2433 20.5323 23.1014
CA -7.08676 25.2307 20.5389
CA -17.481 16.8786 78.3586
CA 0.029619 14.3961 47.888
CA -23.6467 8.65713 62.1413
CA -41.2603 5.44242 49.6673
CA -31.4918 28.5535 48.7511
CA -16.0308 -10.5834 81.7246
CA 12.4948 -8.16294 53.6996
CA -18.4058 -18.0012 85.1518
CA -12.2757 22.9525 43.2833
CA -36.7396 11.4124 48.0407
CA -26.688 4.49337 47.365
CA -28.0212 20.7149 19.8313
CA -23.8015 17.4055 37.3171
CA -2.18557 13.3373 72.5685
CA -11.9021 18.5262 27.6265
CA -31.5652 21.5536 71.8211
CA -21.5964 6.81573 52.1789
CA -19.1703 19.5142 57.482
CA -46.284 3.36472 34.6518
CA -23.7599 22.1508 22.6992
CA -1.83607 -9.13105 58.0159
CA 4.56283 8.18021 79.9593
CA 0.77664 -4.60483 47.9141
CA -17.3129 -17.0486 79.7041
CA -26.7792 -4.42797 62.3432
CA -16.2954 30.4647 42.9927
CA -17.8129 13.3224 39.3387
CA -35.761 2.86496 51.1678
CA -31.3025 19.5584 15.9993
CA -27.0808 -2.20247 57.2477
CA -18.0988 -6.43446 58.9589
CA -14.3168 32.7869 41.5082
CA -23.9818 -3.5509 43.2489
CA -47.2444 9.33488 51.2029
CA -19.8703 12.7144 60.8065
CA -0.087123 21.2359 47.0076
CA -36.7498 22.4552 76.3424
CA -25.1099 -18.1017 53.6967
CA -32.9508 -4.51514 57.0095
CA -31.8659 18.4152 18.6441
CA -18.7805 19.0415 16.3252
CA -2.24214 14.4352 68.787
CA -37.4173 7.65248 45.0602
CA -18.7811 -3.02486 55.7743
CA -33.4269 2.03525 57.7067
CA -38.3575 13.3114 48.0298
CA -12.5965 12.9772 65.258
CA -24.225 1.21527 45.0126
CA 3.01679 15.4427 70.3951
CA -2.83524 20.7332 28.083
