489

CA -12.9966 6.72152 59.756
CA -15.5471 40.2043 20.2804
CA -37.5298 12.3106 55.3514
CA -31.9712 2.77036 59.0871
CA -7.86205 -10.4957 61.1857
CA -3.02372 9.73242 65.9482
CA -31.9481 15.5011 30.3722
CA -56.9045 2.6242 39.8219
CA -38.0605 36.7622 46.942
CA -44.3187 5.92906 54.1514
CA -28.2793 -12.2448 46.5375
CA -17.2169 -1.14327 60.4516
CA -36.5336 2.04349 48.9987
CA -6.90709 16.7607 26.9009
CA -12.7097 15.9609 43.0162
CA -17.2292 -10.0249 87.0608
CA -40.2635 4.79942 44.0952
CA -17.2236 25.3674 16.5344
CA -41.9434 -2.49486 61.0574
CA -36.6765 -6.57471 50.2271
CA -19.7636 8.73645 53.2149
CA -42.1605 8.50387 52.9469
CA -17.4223 -11.5636 50.9995
CA -18.0299 31.532 17.5924
CA -22.3158 18.234 42.8924
CA -22.3961 -4.41983 46.1693
CA -46.3708 3.19112 37.572
CA -19.3733 7.7589 45.856
CA -25.6894 1.66706 58.5183
CA -17.6009 9.07587 73.2189
CA -25.1475 12.3655 10.5695
CA -36.8771 14.8323 69.1746
CA -19.2776 9.51008 44.8053
CA -32.1269 -5.95066 61.6957
CA -3.21794 -14.3706 42.2937
CA -16.4169 28.0136 18.6004
CA 1.87765 -10.0036 44.8215
CA -21.039 24.0743 81.4488
CA -14.1873 26.9696 41.8816
CA -8.6258 16.6413 45.9458
CA -19.5718 8.88014 34.1687
CA -5.00684 19.58 43.9615
CA -21.6443 9.53314 53.9013
CA -16.0732 -11.1632 45.4085
CA -7.98258 29.9918 33.375
CA -12.0288 16.3101 67.4681
CA -27.9751 19.2664 18.3083
CA -31.5605 13.363 23.5707
CA -26.0898 -10.8494 56.4457
CA 2.01383 11.957 70.4066
CA -3.84215 -16.8982 53.5224
CA -13.9652 13.7782 34.1297
CA -45.1813 9.12094 42.9295
CA -17.4749 -12.5087 47.0074
CA -35.9822 9.45394 52.9683
CA -8.23468 17.8761 18.6426
CA -11.2519 -0.425548 55.6433
CA -18.7845 7.86481 58.1844
CA -24.4759 2.81193 56.4281
CA -17.437 37.5084 18.8292
CA -46.0121 22.9403 58.5493
CA -23.0747 10.0528 67.6089
CA -43.6522 6.6771 55.9612
CA -17.6445 11.1989 42.2903
CA -27.348 9.42124 42.7422
CA -3.56134 -1.43993 85.6326
CA -32.1185 2.36878 46.9323
CA -21.1055 -6.56683 61.4343
CA -16.6795 12.4561 33.5535
CA -13.1434 33.7298 42.7392
CA -7.59608 15.3158 65.8475
CA -20.6007 -2.82453 62.5168
CA -39.7717 13.4753 78.8019
CA -16.2086 11.1423 36.153
CA -42.7226 10.2231 47.7784
CA -23.8814 10.9638 15.1135
CA -24.2378 -6.53626 72.0106
CA -39.3866 3.07476 61.1114
CA -7.70154 14.7876 43.8274
CA -2.48852 -9.29056 46.3808
CA -13.2004 18.2531 39.5141
CA -14.283 23.5557 18.9356
CA -17.6747 -9.19684 81.8592
CA -17.2816 24.4627 76.3622
CA -37.1212 -0.527883 48.3953
CA -30.1736 -11.8935 45.3155
CA -25.5492 -10.548 46.6356
CA -24.9605 14.1655 19.3086
CA -52.4993 -2.307 35.0707
CA -17.3538 21.7797 42.2709
CA -17.5669 -0.632465 54.0718
CA -36.1981 -5.22194 44.6817
CA -21.9531 -0.441623 43.9318
CA -25.3873 -13.5337 56.6438
CA -10.7647 17.3143 23.7611
CA -18.2819 -5.08935 44.0138
CA -38.1319 0.442416 57.0252
CA -35.2306 -5.2342 65.8991
CA 1.16845 -8.52669 55.954
CA -47.0477 12.5112 44.6694
CA -20.7184 -6.10592 76.0116
CA -16.9824 -8.25979 60.2066
CA -21.2545 -1.16535 66.3234
CA -14.8959 -5.83848 50.1056
CA -15.857 -6.7755 79.7959
CA -39.2482 3.79808 52.3213
CA -20.6305 14.9313 38.8036
CA -35.3048 10.7848 67.2164
CA -28.4877 -13.2669 39.9604
CA -27.006 -10.0549 54.7551
CA -19.4671 -6.06772 63.5054
CA -43.4694 -2.07617 54.1491
CA -29.0267 -6.47417 49.8039
CA -11.3143 -13.7373 65.0945
CA 0.157018 0.456907 66.8067
CA 2.10151 5.94748 76.9127
CA -6.03167 29.97 38.0651
CA 1.64612 3.84746 74.4246
CA -13.4538 -5.31502 64.4353
CA -36.3899 2.75331 60.6978
CA -1.71964 -5.22615 65.3012
CA -5.18404 -14.4374 62.0034
CA -17.6439 18.743 4.80209
CA -45.3905 -1.41669 38.4957
CA -5.79779 20.2734 25.1667
CA -15.4198 -8.01309 74.959
CA -20.4614 19.2993 81.198
CA -26.7282 17.3426 37.6022
CA -23.3722 -13.174 39.6007
CA -31.9342 7.16645 65.4768
CA -10.0594 -8.68534 83.797
CA -19.0274 25.3979 17.2186
CA -11.5468 3.89822 55.7084
CA -15.8244 -4.83004 80.4476
CA -16.1478 -3.4078 52.9008
CA -31.9204 14.4733 38.964
CA -16.6121 -13.7853 78.5289
CA -30.4952 15.1562 19.0084
CA -37.8279 12.6755 16.5346
CA -36.9363 28.6949 52.7142
CA -37.1172 14.5323 79.7702
CA -35.6098 29.9363 49.3791
CA -19.0105 27.8563 18.6908
CA -17.9057 -11.2994 66.144
CA -4.07457 23.8139 27.9317
CA -37.1599 13.6257 49.3844
CA -41.2727 9.1804 42.557
CA -21.1387 -8.35507 53.5691
CA -59.0167 1.06302 43.2637
CA -16.9417 16.1479 41.2541
CA -43.8934 16.8103 44.7919
CA -17.3875 21.6697 44.3882
CA -24.2413 24.8601 38.0235
CA -27.7605 8.05326 48.4758
CA -41.388 6.71031 36.5418
CA -22.7575 14.5054 41.6001
CA -14.2568 -8.21616 81.8478
CA -39.2945 -2.67061 54.8687
CA -15.3325 9.40823 41.646
CA -51.5285 0.916301 37.2028
CA -20.718 20.2899 7.77871
CA -19.119 36.4168 47.2455
CA 5.6278 -3.71287 52.446
CA -27.6017 -14.7675 41.0782
CA -27.1415 -7.08251 74.3172
CA -18.1969 13.0779 73.5834
CA -19.8241 21.7669 16.1712
CA -24.5619 14.143 17.5149
CA -27.0302 4.72105 50.7167
CA -38.8383 0.0981355 64.8087
CA -24.3582 -7.45371 74.9744
CA -0.102429 5.45987 71.0709
CA -37.5884 -5.84759 72.6066
CA -6.69171 -3.25121 68.5957
CA -16.3508 12.5534 78.8505
CA -48.283 -0.761577 54.8043
CA -16.9324 0.907973 57.1034
CA -22.3097 17.6659 72.2796
CA -33.6828 17.6584 79.1539
CA -25.208 10.3191 74.6148
CA -21.5875 -9.34767 59.9165
CA -14.7021 14.496 64.2541
CA -24.1216 4.37318 46.8766
CA -15.9118 15.5199 34.117
CA -31.9779 32.1838 50.2945
CA -36.1273 29.3046 56.8133
CA -38.9346 -5.72333 54.3458
CA -11.0155 21.3111 67.7743
CA -24.4839 27.1642 34.3935
CA -16.2311 27.5257 24.1601
CA -3.67325 16.0101 67.5459
CA -22.4757 -9.89031 53.404
CA -10.9744 26.6777 40.4419
CA -37.6493 -0.823804 60.7197
CA -26.4173 -6.90983 47.6415
CA -40.887 -3.51516 52.5201
CA -15.3068 16.8071 29.5022
CA -15.6336 0.792225 49.251
CA -23.4648 9.73764 54.2168
CA -15.0791 -2.29354 50.658
CA -33.5792 14.0817 57.4584
CA -13.8881 24.1782 40.6163
CA -29.2024 -14.3043 46.9853
CA -24.978 14.6707 40.9015
CA -34.4812 0.947879 60.3228
CA -28.8334 21.1431 16.6053
CA -15.5108 5.04064 42.3588
CA -34.6201 20.9376 71.2804
CA -19.4127 22.2556 10.4924
CA -38.1573 -0.790635 68.5929
CA -28.3325 8.15732 44.3407
CA -14.7228 -6.15956 76.4987
CA -11.9511 17.755 69.4395
CA -18.7385 10.9336 37.4864
CA -25.1138 6.11424 42.788
CA -31.5551 18.4191 36.2241
CA 4.00708 4.87766 71.7816
CA -49.5526 -0.727908 53.3458
CA -25.1439 19.7181 20.6354
CA -25.6193 22.4721 8.40222
CA -36.3071 11.2085 76.0042
CA -8.06534 8.7599 63.3431
CA -35.9946 25.714 65.576
CA -23.2934 -3.00708 65.8907
CA -37.5444 1.58857 53.7972
CA -17.8212 -4.47846 52.4614
CA -16.2776 7.11513 60.3639
CA -23.7823 -8.92319 71.2012
CA -33.4642 29.7907 48.7005
CA -16.5431 9.44736 32.9394
CA -37.7512 18.0616 69.6826
CA -37.0172 -2.91364 46.9792
CA -43.2557 3.53145 58.8004
CA -41.3122 2.6979 53.8215
CA -0.310657 17.9871 67.6511
CA -7.20395 23.5638 18.9306
CA -33.6633 11.8956 45.0397
CA -40.5629 -0.059481 62.5727
CA -35.9834 -4.99243 53.2871
CA -39.6479 30.3492 60.6064
CA -33.114 20.2641 70.2358
CA -4.24223 20.7748 38.9608
CA -34.0897 -8.62802 58.8259
CA -17.7614 12.0567 58.5878
CA -1.94714 16.1542 60.973
CA -49.0294 10.1292 51.9946
CA -19.1437 -11.4732 40.1931
CA 2.64196 -7.21658 39.0627
CA -19.5668 -7.62761 62.0986
CA -34.2739 16.7023 55.4938
CA -55.0369 3.89083 41.2965
CA -13.4828 -2.31314 80.1192
CA -0.0577542 7.72427 72.2213
CA -14.5891 0.782156 59.1753
CA -18.2301 17.6733 67.9279
CA -5.24537 -7.59636 83.8674
CA -9.86471 33.9499 42.2144
CA 0.441245 19.4051 35.7267
CA 2.46237 -13.1979 67.8569
CA -10.9519 -10.1298 64.1774
CA -34.0107 12.5307 48.3669
CA -20.4446 -9.42421 45.8603
CA -30.0551 -4.59271 68.4279
CA -0.117084 12.6569 69.3311
CA -19.6682 8.58248 47.7636
CA -28.2605 10.263 49.3008
CA -39.6584 25.8546 58.6166
CA -39.4785 24.6259 51.8487
CA -22.2458 -5.22145 73.1811
CA -52.0079 -0.960161 39.4376
CA -4.32167 14.722 45.7719
CA -35.6623 24.1396 63.8233
CA -21.9491 9.15925 47.4604
CA -29.9227 13.4659 19.7727
CA -24.8349 19.4718 14.1154
CA -2.39434 20.4026 70.6439
CA -35.8575 12.6565 70.6565
CA -5.09095 16.6066 62.5708
CA -28.7653 13.6986 30.5066
CA -45.4364 10.3267 50.2254
CA -30.3951 -3.26162 50.0257
CA 5.01474 19.7169 70.7244
CA -33.4815 19.2061 54.2982
CA -42.8038 19.9295 42.5745
CA -19.2967 8.63561 43.1351
CA -40.582 1.02296 60.4604
CA -49.3045 1.73959 56.5154
CA -13.8207 -4.43988 44.7222
CA -36.3053 -1.49494 51.6231
CA -52.7547 2.77791 42.4986
CA -33.2446 26.7987 59.1714
CA -14.9103 7.51529 58.0715
CA -16.3903 30.722 44.36
CA -29.0552 -3.65164 52.1518
CA -25.0846 16.8746 35.8805
CA -33.8468 12.7377 17.4847
CA -24.0001 16.2841 18.9865
CA -25.9776 1.27506 49.1293
CA -4.76725 -16.3234 38.192
CA -16.2027 -5.23346 58.5684
CA -5.27445 27.5476 30.8071
CA -17.4669 34.9882 19.6652
CA -39.4445 30.0794 56.0244
CA -17.6346 -3.26365 61.5038
CA -24.8777 11.8735 50.0919
CA -44.2536 3.28573 42.4418
CA -33.5511 18.8075 71.49
CA -37.4693 9.25777 44.0462
CA -30.1043 10.9692 31.0412
CA -30.4142 -11.6203 48.9154
CA -31.9065 -14.5766 51.8416
CA 2.50254 -12.4984 56.5671
CA -41.0515 0.00393056 42.1073
CA -15.6852 -10.071 78.6726
CA -31.9897 0.80777 55.3021
CA -29.2481 0.629275 57.1842
CA -16.5325 7.79867 63.0008
CA -36.5091 16.347 59.462
CA -39.5954 16.69 58.4671
CA 5.23733 -9.65082 46.2176
CA -7.17283 25.8785 15.5009
CA -33.8395 -4.10716 66.2619
CA -12.8587 11.336 68.307
CA -19.9468 -3.99437 45.8444
CA -14.6608 11.3396 73.7524
CA 1.29902 -15.2757 38.2375
CA -38.7267 0.075239 62.0844
CA -43.017 6.46354 49.0602
CA -9.34417 -5.05656 63.9274
CA -26.7567 13.8502 56.4572
CA -14.6636 9.67661 70.4109
CA -37.3645 2.36682 45.7541
CA -43.5747 9.75674 45.1075
CA -6.85767 18.0081 69.7135
CA -10.1345 14.2751 66.0591
CA -18.6064 17.2526 43.2377
CA -6.66103 29.728 15.7956
CA -40.8652 -4.75768 64.2571
CA -3.49582 -13.5333 58.127
CA 4.67131 -6.54255 42.9141
CA -32.5901 22.7137 16.3046
CA -36.1356 14.6352 16.6481
CA -34.8214 18.1597 62.066
CA -14.1839 21.479 65.909
CA -36.9143 1.11687 60.123
CA -46.1579 25.411 56.3612
CA -5.27493 12.7146 66.1599
CA 0.693545 -8.45129 44.9421
CA -35.0199 36.0166 52.1416
CA 2.21196 18.6917 35.8799
CA -32.4204 18.4915 69.7819
CA -32.2384 15.6221 73.9183
CA -27.4942 5.68145 56.6196
CA -39.8888 16.9874 79.1498
CA -41.128 -1.04656 51.8686
CA -41.2977 18.2124 43.0049
CA -40.822 -4.14255 56.8577
CA -37.4818 16.2924 70.1839
CA -11.6706 14.0951 64.052
CA -8.30096 16.0442 64.3458
CA -2.10145 1.32494 70.6302
CA -40.932 2.41916 56.9584
CA -32.9825 18.5676 77.4083
CA -3.96994 -11.4997 64.4734
CA -30.6263 16.2507 34.722
CA -57.3805 -4.68174 40.5839
CA -34.1579 -5.82853 69.156
CA -29.0774 16.9291 81.0399
CA -55.6797 1.68092 38.7283
CA -22.912 17.7916 18.9007
CA -10.7317 31.7964 30.0459
CA -34.1189 0.353588 55.0813
CA -8.56063 17.9532 23.4084
CA -56.8524 -1.31035 39.777
CA -37.3468 23.5778 62.564
CA -36.845 -5.20879 63.608
CA -35.7588 -0.204831 47.1392
CA 5.38089 22.1018 72.1529
CA -36.6601 15.7026 61.9445
CA -18.7667 31.0516 47.448
CA -10.1683 36.7561 41.2082
CA -41.2228 23.6507 57.8169
CA -37.5314 17.9262 56.2067
CA -34.7702 2.46772 46.0917
CA -32.9702 11.7334 68.3956
CA -21.9289 22.2215 38.9533
CA -37.7192 26.2001 57.1841
CA -36.744 10.8065 50.143
CA -29.8151 15.8268 37.456
CA -41.9935 8.4524 38.0375
CA -4.1166 22.4465 46.0254
CA -23.3973 -14.6139 36.7099
CA -13.1187 20.4498 20.3543
CA -5.21394 -4.78318 63.178
CA -26.2624 8.97167 46.2903
CA -19.2793 36.5868 19.4073
CA -37.5788 -4.47537 54.9853
CA -41.4207 12.6156 51.5641
CA -29.1609 1.5588 59.1662
CA -25.7425 15.2885 38.4069
CA -34.1059 1.58864 52.7546
CA -20.3821 19.6761 70.4115
CA -41.7224 -3.05506 59.0029
CA -11.6642 9.3245 64.2982
CA -18.3087 21.5585 77.8365
CA -11.6809 -4.93028 73.6109
CA -35.2296 24.7822 62.057
CA -31.2733 -3.37574 63.7901
CA -31.6928 14.9085 63.5333
CA 5.30181 -8.14091 43.8523
CA -57.2811 4.48308 41.3485
CA -31.1875 4.06622 52.1668
CA -37.7108 35.1105 49.0728
CA -32.4334 4.4468 53.9213
CA -41.124 21.5166 55.4436
CA -31.6258 16.4979 36.2443
CA -1.1587 -3.03352 52.4554
CA 5.28194 -11.8119 43.4364
CA 0.625338 -16.7457 37.4367
CA -19.8618 19.7722 10.4367
CA -9.1299 32.1655 40.2023
CA -19.1663 29.912 16.8154
CA -40.9273 32.3654 62.0644
CA -5.71859 17.0983 35.9797
CA -19.0275 0.436668 56.0526
CA 0.19827 -3.27274 54.9741
CA -11.829 18.0368 42.6182
CA -22.2591 20.4532 82.8923
CA -0.416366 -5.96186 50.1919
CA -37.7673 10.4456 68.9773
CA -14.9472 0.231179 51.6634
CA -36.7654 29.308 58.5311
CA -20.9755 -6.21448 83.9803
CA -17.2217 18.499 66.6778
CA 1.75043 -12.0573 62.0251
CA -41.0633 -2.03278 47.1566
CA -54.5246 7.99344 39.5497
CA -28.5106 -16.0187 38.9536
CA -14.7029 -5.03055 69.0848
CA -17.481 16.8786 78.3586
CA -40.1323 18.1454 60.6544
CA -23.6467 8.65713 62.1413
CA -22.6534 14.0009 7.67526
CA -23.0138 9.73501 72.5602
CA -16.0308 -10.5834 81.7246
CA -1.23565 -12.3878 68.9065
CA -24.4401 19.9844 7.94091
CA -28.1269 20.7188 24.8056
CA 1.4226 7.21856 71.121
CA -1.34685 20.8489 41.3299
CA 7.21151 21.1073 71.0802
CA -4.15155 21.8587 43.8218
CA 2.99906 17.272 70.3559
CA -41.2175 -0.825888 57.9615
CA -1.59945 -11.0269 60.0293
CA -13.3655 19.3611 41.2851
CA -37.0618 10.8782 71.1425
CA -24.089 18.1618 16.9368
CA -26.121 11.3797 57.8447
CA -25.3093 -0.975251 59.7521
CA 4.56283 8.18021 79.9593
CA -39.0601 11.4707 61.7199
CA -2.68846 21.5222 38.356
CA -26.7792 -4.42797 62.3432
CA -39.9192 12.8947 45.3368
CA -24.9854 0.580418 54.2404
CA -30.6203 4.31535 60.6771
CA -2.17676 18.5972 33.2657
CA -25.0948 -8.68614 45.5354
CA 3.35558 -11.5639 40.3968
CA -56.267 6.53128 37.4898
CA -30.2711 -6.37936 62.4418
CA 0.970934 -1.44628 53.0462
CA -19.8703 12.7144 60.8065
CA -0.087123 21.2359 47.0076
CA -16.835 26.0286 21.5318
CA -12.4237 5.41531 61.3781
CA -34.9035 -10.589 58.934
CA -33.2224 -17.2075 52.2113
CA -28.167 8.56444 55.1792
CA -12.8961 43.3123 18.9046
CA -18.1968 -0.188662 45.3371
CA -21.7444 -7.03256 58.3461
CA -14.2718 -11.3557 72.137
CA -38.3575 13.3114 48.0298
CA -53.1699 7.29431 36.9933
CA -19.8106 21.385 43.674
CA -30.9084 8.58898 67.3788
CA -10.5827 -6.1265 68.3478
