489

CA -33.2925 -7.53296 67.8145
CA -15.5471 40.2043 20.2804
CA -21.7942 30.0691 39.699
CA -13.1324 10.8854 71.6924
CA -12.1516 -3.16666 83.0478
CA -6.53257 22.7413 29.3846
CA -15.874 16.4368 68.448
CA -30.9313 21.859 33.8599
CA -32.1858 15.3027 65.2421
CA -45.3332 21.7525 60.8614
CA -28.2793 -12.2448 46.5375
CA -35.4138 11.0189 72.163
CA -11.3634 14.2614 43.4635
CA -6.90709 16.7607 26.9009
CA -19.7442 -11.5593 62.9271
CA -15.7844 23.9306 14.9705
CA -38.7822 4.55881 55.6782
CA -17.2236 25.3674 16.5344
CA -24.0455 1.92903 47.8084
CA -7.92136 29.1583 40.7332
CA -24.7124 -11.8695 57.8664
CA -42.1605 8.50387 52.9469
CA -17.4223 -11.5636 50.9995
CA -18.0299 31.532 17.5924
CA -22.3158 18.234 42.8924
CA -33.6791 9.22958 41.0061
CA -46.3708 3.19112 37.572
CA -26.5679 19.9932 56.4408
CA -25.6894 1.66706 58.5183
CA -17.6009 9.07587 73.2189
CA -25.1475 12.3655 10.5695
CA -22.6152 -0.561375 46.4744
CA -33.9578 1.16572 64.2645
CA -42.9283 1.19545 55.7686
CA -41.5986 5.72702 34.1825
CA -18.6185 -1.3624 58.4266
CA -11.9088 22.8435 17.7878
CA -35.9875 27.7051 51.2408
CA -25.1732 19.6407 83.2458
CA -18.5246 38.636 20.2896
CA -25.7073 7.23257 50.5973
CA 6.75597 -8.26101 42.2
CA -34.6001 28.3618 44.4733
CA -16.0732 -11.1632 45.4085
CA -7.69067 1.96602 64.5521
CA -24.0933 13.3771 76.2488
CA -27.9751 19.2664 18.3083
CA -31.5605 13.363 23.5707
CA -8.58818 14.4873 19.7656
CA 2.01383 11.957 70.4066
CA 10.8813 -5.04753 49.642
CA -17.975 17.6802 30.1426
CA -31.8133 4.40612 55.7578
CA -9.99537 -3.71569 84.6339
CA -35.9822 9.45394 52.9683
CA -8.23468 17.8761 18.6426
CA -11.2519 -0.425548 55.6433
CA -34.0335 -1.79265 59.3877
CA -37.9793 8.1932 69.5754
CA -9.85345 2.25314 51.169
CA -46.0121 22.9403 58.5493
CA -15.7941 -8.50843 84.0216
CA -20.0031 22.3818 78.9081
CA -12.6613 -8.06588 59.6789
CA -27.348 9.42124 42.7422
CA -34.116 14.8634 26.5895
CA 1.13847 5.87189 73.4138
CA -21.1055 -6.56683 61.4343
CA 2.40874 -8.09141 53.3968
CA 0.175914 -12.0263 56.4637
CA -9.44004 2.16198 53.7
CA -26.2244 3.72996 51.2824
CA -23.2891 4.85805 55.7484
CA -16.2086 11.1423 36.153
CA -42.7226 10.2231 47.7784
CA -23.8814 10.9638 15.1135
CA -24.3646 -11.9621 63.7883
CA -12.0876 28.1699 41.245
CA -14.4252 -4.8468 40.8601
CA -24.3691 0.71822 37.7163
CA -13.2004 18.2531 39.5141
CA -17.931 13.8282 51.041
CA -18.6059 7.87294 61.9501
CA -17.2816 24.4627 76.3622
CA -37.1212 -0.527883 48.3953
CA -43.283 4.41222 37.5057
CA -28.3776 4.23503 48.3751
CA -16.4687 22.4487 46.445
CA -40.594 3.25762 58.6168
CA -39.2146 19.4911 76.4233
CA -17.5669 -0.632465 54.0718
CA -36.9755 -11.3995 60.9763
CA -15.8894 31.5313 19.2096
CA -12.1068 10.3923 62.6754
CA -10.7647 17.3143 23.7611
CA -19.5345 24.2166 41.3111
CA -38.1319 0.442416 57.0252
CA -35.2306 -5.2342 65.8991
CA -54.6881 0.0919206 40.4373
CA -34.6339 1.12948 56.7007
CA -24.7755 17.4769 12.5707
CA -45.8175 18.7724 55.9052
CA -20.4563 1.0251 40.9951
CA -37.0444 17.2646 80.2639
CA -51.0699 -0.105265 50.9764
CA -35.7548 22.0959 60.6476
CA -20.6305 14.9313 38.8036
CA -0.905339 19.5442 69.834
CA -9.03005 -11.9499 64.8721
CA -30.6834 -4.68417 61.2277
CA -19.4671 -6.06772 63.5054
CA -43.4694 -2.07617 54.1491
CA -29.0267 -6.47417 49.8039
CA 6.32717 -4.84474 50.9777
CA -49.9525 21.511 65.0237
CA 6.31408 -5.06906 55.0737
CA -6.03167 29.97 38.0651
CA -16.9395 -8.51925 45.981
CA -13.4538 -5.31502 64.4353
CA -3.91977 11.4067 63.7827
CA -1.82318 -9.42465 58.4887
CA -8.65757 -10.1889 65.6524
CA -9.19719 -1.95773 80.5301
CA -42.9154 19.3156 40.8266
CA -5.79779 20.2734 25.1667
CA -15.4198 -8.01309 74.959
CA -1.86264 -7.11596 65.0466
CA -26.7282 17.3426 37.6022
CA 3.54435 -8.32187 54.7968
CA -15.1028 19.9845 58.1472
CA -17.1783 19.0494 55.2292
CA -19.0274 25.3979 17.2186
CA -14.7567 29.5562 24.2337
CA -15.8244 -4.83004 80.4476
CA -26.757 11.5759 82.6948
CA -18.4614 -4.32097 87.4579
CA 0.504926 4.12998 72.492
CA -39.0007 17.0064 48.3334
CA -37.8279 12.6755 16.5346
CA -36.9363 28.6949 52.7142
CA -37.1172 14.5323 79.7702
CA -35.6098 29.9363 49.3791
CA -19.0105 27.8563 18.6908
CA -32.594 29.3802 46.1567
CA -4.07457 23.8139 27.9317
CA -37.1599 13.6257 49.3844
CA -41.2727 9.1804 42.557
CA -0.471049 -14.3432 66.721
CA -59.0167 1.06302 43.2637
CA -20.5592 -12.9144 66.3686
CA -43.8934 16.8103 44.7919
CA -18.4947 6.38571 41.409
CA -41.871 4.03479 65.1171
CA -27.7605 8.05326 48.4758
CA -33.9742 9.68179 69.4394
CA -15.1769 18.2733 35.1641
CA -23.8293 24.3459 16.5806
CA -39.2945 -2.67061 54.8687
CA -15.3325 9.40823 41.646
CA -48.005 -3.89756 34.0522
CA -20.718 20.2899 7.77871
CA -26.5399 7.16804 40.8663
CA -19.4432 9.53556 49.372
CA -31.5046 16.4109 21.9331
CA -31.6195 30.9633 53.4093
CA -0.547584 1.80526 69.7704
CA -19.8241 21.7669 16.1712
CA -25.3554 9.67309 50.0249
CA -31.5777 -3.90835 70.5465
CA -38.8383 0.0981355 64.8087
CA -24.3582 -7.45371 74.9744
CA -0.102429 5.45987 71.0709
CA -5.96009 -10.1602 61.898
CA -6.69171 -3.25121 68.5957
CA -16.3508 12.5534 78.8505
CA -35.1876 18.0274 57.3348
CA -29.9698 19.8578 33.8115
CA -22.3097 17.6659 72.2796
CA -2.93911 7.55102 72.2458
CA 2.99256 -11.4862 42.5721
CA -21.5875 -9.34767 59.9165
CA -14.7021 14.496 64.2541
CA -24.1216 4.37318 46.8766
CA -15.9118 15.5199 34.117
CA -3.79032 31.9153 18.0361
CA -27.6846 17.7761 19.8863
CA -38.9346 -5.72333 54.3458
CA -19.6972 12.0298 50.1253
CA -28.8149 6.68058 63.135
CA -15.2614 -6.26388 58.6087
CA -25.7326 9.87069 84.3287
CA -34.2822 21.6647 68.9552
CA -34.6829 9.30029 66.7719
CA -10.9948 10.3064 45.9963
CA -26.4173 -6.90983 47.6415
CA -32.0515 19.5203 56.0009
CA -15.3068 16.8071 29.5022
CA -33.7981 5.8172 42.3383
CA -21.564 -0.191127 66.2909
CA -10.1832 0.684644 62.3497
CA -16.136 24.6087 25.8417
CA -26.0065 27.2951 35.209
CA -29.2024 -14.3043 46.9853
CA -14.9803 24.8872 19.9714
CA -0.614863 -0.883499 50.2582
CA -28.8334 21.1431 16.6053
CA -33.358 30.1003 42.5834
CA -34.6201 20.9376 71.2804
CA -5.74873 21.9289 26.7705
CA -38.1573 -0.790635 68.5929
CA -49.1723 -2.39117 35.6882
CA -32.7384 13.5587 72.9642
CA -41.0747 27.158 53.7549
CA -18.7385 10.9336 37.4864
CA -37.222 -11.1624 53.7966
CA -14.2283 11.5806 76.8482
CA -28.9211 16.0408 39.9143
CA -49.5526 -0.727908 53.3458
CA -40.3205 22.7468 51.8521
CA -27.3897 20.4114 33.9496
CA -39.0869 4.71063 52.977
CA -8.06534 8.7599 63.3431
CA -35.9946 25.714 65.576
CA -23.2934 -3.00708 65.8907
CA -37.5444 1.58857 53.7972
CA -17.8212 -4.47846 52.4614
CA -8.30188 30.118 42.847
CA -6.3269 14.3056 63.2428
CA -5.70646 24.3843 27.1735
CA -18.4454 17.2184 58.9319
CA -37.5479 4.11389 57.8028
CA -10.6977 -3.57992 57.8846
CA -21.0252 15.6892 72.7169
CA -19.8097 26.4997 81.2956
CA -24.2706 -3.17005 64.3755
CA -7.20395 23.5638 18.9306
CA -33.6633 11.8956 45.0397
CA -33.3442 -1.85415 51.0231
CA -14.2916 -1.48792 56.3972
CA -39.6479 30.3492 60.6064
CA -36.2065 -3.36553 58.974
CA -26.8729 30.2836 36.6851
CA -26.8521 -6.09113 74.4104
CA -32.38 20.9953 55.0098
CA -1.94714 16.1542 60.973
CA -50.8657 4.48363 57.4299
CA -12.1025 25.4496 13.4513
CA -22.7154 27.5295 36.3823
CA -39.425 19.1332 83.1945
CA -34.915 31.2932 47.6504
CA -11.2734 16.2195 27.6391
CA -20.4328 17.1451 79.6999
CA -16.8925 6.12916 56.8357
CA -26.783 11.1398 48.1192
CA -18.2301 17.6733 67.9279
CA -3.81499 -11.4585 59.2487
CA -9.86471 33.9499 42.2144
CA 0.441245 19.4051 35.7267
CA -23.5012 14.5752 71.1443
CA -10.9519 -10.1298 64.1774
CA -36.3534 -10.7324 57.5982
CA -42.634 31.8268 61.6585
CA -30.0551 -4.59271 68.4279
CA -3.22813 17.2657 44.4837
CA -19.6682 8.58248 47.7636
CA -17.1445 20.3857 32.0146
CA -21.7352 19.677 77.3613
CA -39.4785 24.6259 51.8487
CA -22.2458 -5.22145 73.1811
CA -52.0079 -0.960161 39.4376
CA 2.13234 -1.12157 54.983
CA -37.4226 14.0753 53.9135
CA -39.6109 -0.664133 55.0957
CA -29.9227 13.4659 19.7727
CA -37.2375 -0.549555 58.5676
CA -2.39434 20.4026 70.6439
CA -35.8575 12.6565 70.6565
CA -49.2414 23.2897 62.467
CA -44.8093 1.72865 44.3248
CA -45.4364 10.3267 50.2254
CA -34.3087 -2.68337 56.1179
CA -38.5519 13.4635 43.619
CA -33.4815 19.2061 54.2982
CA -42.8038 19.9295 42.5745
CA -12.2249 4.66341 63.0189
CA -0.101338 14.9628 68.7144
CA -49.3045 1.73959 56.5154
CA -6.64539 -5.40676 62.5532
CA -33.3726 14.0307 71.1385
CA -25.7782 -3.82205 56.0598
CA -33.2446 26.7987 59.1714
CA 3.81092 -4.70233 54.562
CA -16.3903 30.722 44.36
CA -29.0552 -3.65164 52.1518
CA -30.9752 2.96108 49.574
CA -33.8468 12.7377 17.4847
CA -24.0001 16.2841 18.9865
CA -25.9776 1.27506 49.1293
CA -4.76725 -16.3234 38.192
CA -41.0168 10.6289 71.101
CA -5.27445 27.5476 30.8071
CA -27.0555 14.1177 82.9091
CA -39.4445 30.0794 56.0244
CA -34.9284 27.6855 67.6689
CA -24.8777 11.8735 50.0919
CA -47.7373 12.0082 54.3755
CA -30.6667 8.45767 68.1097
CA -37.4693 9.25777 44.0462
CA -33.8265 27.5882 48.7785
CA -22.5078 -2.69421 68.4408
CA -17.666 15.9445 69.7128
CA 2.50254 -12.4984 56.5671
CA -36.1448 22.7149 73.3572
CA -32.2325 3.99129 62.1775
CA -1.34892 15.2452 65.6866
CA 0.907129 15.9411 66.5963
CA -16.5325 7.79867 63.0008
CA -22.0253 9.6396 45.2522
CA -17.3422 12.1281 48.6446
CA 5.23733 -9.65082 46.2176
CA -7.17283 25.8785 15.5009
CA -21.348 13.5009 42.9053
CA -39.8737 6.70762 51.8046
CA -19.9468 -3.99437 45.8444
CA -14.6603 9.33251 57.2217
CA -34.16 -9.92443 64.8912
CA -9.93611 27.9172 39.7592
CA -26.4283 15.7695 79.2188
CA -9.34417 -5.05656 63.9274
CA -41.1402 24.059 63.0141
CA -7.54168 27.8852 14.0547
CA -33.5305 5.22208 59.8021
CA -43.4977 25.2074 49.2134
CA -14.0601 3.89761 63.5419
CA -10.1345 14.2751 66.0591
CA -18.6064 17.2526 43.2377
CA -6.66103 29.728 15.7956
CA -34.1147 16.3901 61.7391
CA -3.49582 -13.5333 58.127
CA 4.67131 -6.54255 42.9141
CA -18.1365 -3.32354 46.2891
CA -28.7699 8.77411 50.4332
CA -47.3101 -3.34292 37.4037
CA -31.7133 -2.6022 51.2383
CA -36.9143 1.11687 60.123
CA -15.2908 3.48732 60.0542
CA -30.9564 10.3946 46.5288
CA 0.693545 -8.45129 44.9421
CA -1.15941 5.28058 73.2967
CA -39.8729 9.02265 16.0836
CA -32.4204 18.4915 69.7819
CA -32.2384 15.6221 73.9183
CA -20.394 -9.02979 58.1364
CA -11.7236 -3.35525 75.1791
CA -19.9808 -11.857 43.0279
CA -41.2977 18.2124 43.0049
CA -27.2335 5.7223 48.7113
CA -18.5622 -3.74647 67.9385
CA -17.0352 -4.56697 54.7774
CA -39.1631 -5.81762 57.8788
CA -19.2174 12.5248 59.8325
CA -40.932 2.41916 56.9584
CA -32.9825 18.5676 77.4083
CA -3.96994 -11.4997 64.4734
CA -29.5748 17.3349 57.7036
CA 5.10051 -10.8567 56.3939
CA -34.1579 -5.82853 69.156
CA -29.0774 16.9291 81.0399
CA -5.81756 27.1001 34.6664
CA -22.912 17.7916 18.9007
CA -45.3529 20.2485 59.2202
CA -51.2679 -1.20435 36.3215
CA -27.1467 14.8427 15.7493
CA -56.8524 -1.31035 39.777
CA -37.3468 23.5778 62.564
CA 0.219114 -16.1561 71.0469
CA -18.4675 -0.919525 47.0575
CA -2.49295 20.9418 67.8651
CA -23.4943 -6.12863 52.2072
CA -18.7667 31.0516 47.448
CA -35.6197 -4.25462 61.7742
CA -41.2228 23.6507 57.8169
CA -34.1365 8.38873 44.2654
CA -22.5765 14.8915 10.5376
CA -32.9702 11.7334 68.3956
CA -21.9289 22.2215 38.9533
CA -37.7192 26.2001 57.1841
CA -12.8581 4.22075 67.8472
CA -26.2011 14.0471 74.7004
CA -20.3788 25.7479 19.6655
CA -4.1166 22.4465 46.0254
CA -28.3513 23.139 36.1233
CA -7.33327 18.7804 42.5752
CA -15.6975 -2.44678 42.2153
CA -38.1218 30.0717 47.2676
CA -19.2793 36.5868 19.4073
CA -10.5974 -3.09024 72.2482
CA -16.0772 -6.59026 82.8222
CA -49.7021 -0.333023 57.5509
CA -15.5536 -2.62062 84.8454
CA -33.3148 2.47332 55.0385
CA -11.1336 31.6284 42.0781
CA -41.7224 -3.05506 59.0029
CA -11.6642 9.3245 64.2982
CA -35.8529 23.651 49.2529
CA -26.7527 5.33319 53.7791
CA -14.5417 19.5721 80.1409
CA -8.25276 24.6691 11.8074
CA -31.6928 14.9085 63.5333
CA -1.73321 11.9289 70.0507
CA -30.9954 15.0785 69.18
CA -31.1875 4.06622 52.1668
CA 3.21115 -14.3021 39.8419
CA -32.4334 4.4468 53.9213
CA -5.53164 12.5893 64.1915
CA -14.5141 -5.23545 78.9643
CA -24.6224 2.03103 38.9916
CA -16.8846 23.9858 42.0019
CA -16.9705 -5.45887 56.7559
CA -21.745 -13.7041 52.8244
CA -16.6067 -2.25593 58.1173
CA -19.1663 29.912 16.8154
CA -26.209 22.4144 38.2505
CA -12.4757 18.133 23.9062
CA -45.8461 0.591876 37.2504
CA 0.19827 -3.27274 54.9741
CA -11.829 18.0368 42.6182
CA -38.5417 24.529 60.8648
CA -0.416366 -5.96186 50.1919
CA -36.7207 6.45272 43.6512
CA -14.9472 0.231179 51.6634
CA -1.62879 -15.0902 41.0145
CA -32.9664 -3.6008 66.7338
CA -17.2217 18.499 66.6778
CA -38.4132 3.288 54.0269
CA -41.0633 -2.03278 47.1566
CA -43.2117 5.57059 59.3977
CA -42.9666 22.5754 61.6933
CA -14.7029 -5.03055 69.0848
CA -17.481 16.8786 78.3586
CA -40.1323 18.1454 60.6544
CA -13.12 -4.92142 80.0884
CA -14.5146 2.60594 58.303
CA -23.0138 9.73501 72.5602
CA -16.0308 -10.5834 81.7246
CA -1.23565 -12.3878 68.9065
CA -24.4401 19.9844 7.94091
CA -28.1269 20.7188 24.8056
CA 1.4226 7.21856 71.121
CA -20.862 19.9095 68.3522
CA -18.2201 -15.4812 50.9926
CA -4.15155 21.8587 43.8218
CA 2.99906 17.272 70.3559
CA 3.51806 -7.04286 49.7616
CA -28.7594 10.7917 76.0995
CA -33.1485 -4.24125 55.1075
CA -37.0618 10.8782 71.1425
CA -41.0754 -6.1837 52.7161
CA -41.0803 12.5329 15.7
CA -25.3093 -0.975251 59.7521
CA -28.9151 18.0639 54.5858
CA -31.1041 2.67871 54.9752
CA -2.68846 21.5222 38.356
CA -34.1466 24.4283 60.2433
CA -17.0219 6.37795 50.1668
CA -19.9006 12.3874 47.2304
CA -25.4143 11.3621 14.1827
CA -20.2942 34.4933 18.7347
CA -42.7549 4.46663 42.2649
CA 3.35558 -11.5639 40.3968
CA -36.9094 14.2093 60.4515
CA -10.3449 13.9269 45.4612
CA 0.970934 -1.44628 53.0462
CA -44.3657 -1.2412 59.0198
CA -17.531 -8.41775 53.7255
CA -16.835 26.0286 21.5318
CA -12.4237 5.41531 61.3781
CA -27.7843 27.7381 36.6569
CA -29.9615 6.66633 55.8949
CA -28.167 8.56444 55.1792
CA -31.404 6.69374 52.7425
CA -18.1968 -0.188662 45.3371
CA -32.9094 10.0563 71.7051
CA -49.505 -2.99326 39.8665
CA -24.0418 19.4785 68.8124
CA -25.6114 14.8378 38.2963
CA -26.8033 11.4539 50.3923
CA -11.6703 13.9823 67.3133
CA -10.5827 -6.1265 68.3478
