489

CA -33.2925 -7.53296 67.8145
CA -15.5471 40.2043 20.2804
CA -0.293177 15.2263 62.8189
CA -22.0611 -9.34722 64.8473
CA -34.4433 3.96313 73.3311
CA -44.0761 0.00778692 56.6908
CA -18.5195 -14.3514 52.4078
CA -20.4152 -3.22991 49.8597
CA -31.7951 12.8442 79.954
CA -45.3332 21.7525 60.8614
CA -28.2793 -12.2448 46.5375
CA -13.7579 1.13501 57.9103
CA -11.3634 14.2614 43.4635
CA -38.0433 32.5643 44.2304
CA 1.25729 -6.37341 54.6138
CA -36.1129 25.5171 69.8615
CA -38.7822 4.55881 55.6782
CA -17.2236 25.3674 16.5344
CA -37.8311 12.8611 81.1857
CA -7.92136 29.1583 40.7332
CA -24.7124 -11.8695 57.8664
CA -42.1605 8.50387 52.9469
CA -17.4223 -11.5636 50.9995
CA -18.0299 31.532 17.5924
CA -18.7602 20.1489 61.5168
CA -43.267 22.7024 54.7555
CA -21.0865 -0.791792 44.2742
CA 1.27046 2.05587 70.2544
CA -25.6894 1.66706 58.5183
CA -17.6009 9.07587 73.2189
CA -30.408 -5.75711 64.0276
CA -2.31667 -3.50821 49.4172
CA -31.3409 12.2607 55.8721
CA -30.4336 16.1848 70.3975
CA -22.1621 16.2479 36.6036
CA -39.5927 13.3376 49.1048
CA -35.3335 -1.83418 68.5916
CA -12.4755 7.82989 67.3975
CA -26.4721 -6.68566 68.9641
CA -2.32538 -5.7373 51.8703
CA -23.8273 18.7656 78.6347
CA -42.646 23.4997 49.852
CA -34.6001 28.3618 44.4733
CA -21.213 -3.58521 44.0089
CA -37.9289 -3.72702 70.4567
CA -24.0933 13.3771 76.2488
CA -27.9751 19.2664 18.3083
CA -31.5605 13.363 23.5707
CA -8.58818 14.4873 19.7656
CA 2.01383 11.957 70.4066
CA -26.6838 11.6895 44.5814
CA -25.0181 12.0673 70.9306
CA -29.9972 4.93623 49.5764
CA -12.8483 18.1606 44.4024
CA -35.9822 9.45394 52.9683
CA -8.23468 17.8761 18.6426
CA -11.2519 -0.425548 55.6433
CA -14.552 17.8312 25.9564
CA -32.7669 -4.92108 71.6357
CA -20.7935 12.3698 69.2465
CA -12.946 2.28882 56.6894
CA -28.8113 4.75727 68.399
CA -20.0031 22.3818 78.9081
CA -16.3617 -9.86031 77.3802
CA -24.8895 8.81564 44.3807
CA -24.2079 -1.48388 37.2973
CA -39.5099 -1.3199 55.0013
CA -21.1055 -6.56683 61.4343
CA 2.40874 -8.09141 53.3968
CA -22.2588 -1.12256 38.4935
CA -9.44004 2.16198 53.7
CA -36.7643 17.2828 62.717
CA -23.2891 4.85805 55.7484
CA -42.7929 24.0691 51.8838
CA -22.3489 33.8396 38.8844
CA -39.0654 1.81908 57.0638
CA -27.8744 -6.0842 59.3497
CA -15.0944 -7.0638 78.0976
CA -43.7658 -1.98032 39.8798
CA -24.3691 0.71822 37.7163
CA -33.9401 10.4409 53.3439
CA -22.5523 23.2761 18.8111
CA -18.6059 7.87294 61.9501
CA -19.9884 18.16 60.1257
CA -37.1212 -0.527883 48.3953
CA -43.283 4.41222 37.5057
CA -12.9526 16.2152 26.5619
CA -9.64692 8.64389 67.0854
CA -31.4345 23.2765 70.3681
CA -39.2146 19.4911 76.4233
CA -17.5669 -0.632465 54.0718
CA -22.6429 -0.556753 68.0846
CA -15.8894 31.5313 19.2096
CA -17.5558 -6.66641 40.7109
CA -10.7647 17.3143 23.7611
CA -13.7622 18.44 58.95
CA -17.6019 24.6309 79.1662
CA -35.2306 -5.2342 65.8991
CA -54.6881 0.0919206 40.4373
CA -34.6339 1.12948 56.7007
CA -8.29865 -7.46841 67.6063
CA -45.8175 18.7724 55.9052
CA -20.4563 1.0251 40.9951
CA -37.0444 17.2646 80.2639
CA -29.7418 26.9724 55.734
CA -31.62 -3.80126 59.4358
CA -20.6305 14.9313 38.8036
CA -19.3587 -7.8069 68.1449
CA -17.0934 -7.17253 86.9782
CA -30.6834 -4.68417 61.2277
CA -10.8052 18.8125 42.8461
CA -43.4694 -2.07617 54.1491
CA -35.8098 12.1421 43.7517
CA 6.32717 -4.84474 50.9777
CA -9.69368 19.1057 35.3345
CA 6.31408 -5.06906 55.0737
CA -10.6146 5.33132 63.845
CA -33.6099 16.5123 60.0569
CA -39.753 2.30512 60.5986
CA -3.91977 11.4067 63.7827
CA -1.82318 -9.42465 58.4887
CA -21.6701 20.247 11.5681
CA -23.1995 13.5073 69.436
CA 6.21141 -9.83155 40.9253
CA -19.4048 13.0926 43.1909
CA -9.47131 16.7954 31.1999
CA -1.86264 -7.11596 65.0466
CA -26.7282 17.3426 37.6022
CA -14.9542 20.8956 24.1879
CA -15.1028 19.9845 58.1472
CA -1.18947 -6.24074 55.07
CA -20.676 -14.1133 66.5839
CA -3.59308 25.3333 29.2856
CA -24.026 21.3866 12.4771
CA -29.7712 21.9629 70.4732
CA -17.0902 28.5359 77.3424
CA -15.239 -7.53199 64.9907
CA -22.1137 5.45915 38.0242
CA -37.8279 12.6755 16.5346
CA -22.1966 20.1625 74.6971
CA -17.1141 18.7966 81.1785
CA -38.2274 -6.63005 60.6806
CA -2.82663 -16.9907 64.8702
CA -33.9179 12.8854 75.8221
CA 3.62166 -15.3585 37.6885
CA -37.1599 13.6257 49.3844
CA -41.2727 9.1804 42.557
CA -0.471049 -14.3432 66.721
CA -59.0167 1.06302 43.2637
CA -25.0098 13.9897 69.2536
CA -4.18582 -5.92427 65.6218
CA -35.0293 6.91736 61.3349
CA -38.6595 27.4209 46.4029
CA -33.3378 -3.26008 59.4731
CA -33.9742 9.68179 69.4394
CA -15.1769 18.2733 35.1641
CA -23.8293 24.3459 16.5806
CA -4.22126 -8.7517 53.1181
CA -15.3325 9.40823 41.646
CA -1.88657 -6.3921 58.5759
CA -20.718 20.2899 7.77871
CA -3.88272 15.0209 61.446
CA -32.3041 0.870587 68.3523
CA -19.2912 -6.89549 86.5088
CA -31.6195 30.9633 53.4093
CA -19.1127 -7.15558 88.6708
CA -19.8241 21.7669 16.1712
CA -23.4525 -11.4891 68.8534
CA -31.5777 -3.90835 70.5465
CA -24.073 14.7032 41.4774
CA -33.7823 13.0704 57.599
CA -6.33205 8.91064 66.3579
CA -8.03374 24.6982 41.3562
CA -6.69171 -3.25121 68.5957
CA -12.8102 16.8643 33.9161
CA -35.1876 18.0274 57.3348
CA -18.0514 16.4032 63.7028
CA -34.9404 23.7021 65.6208
CA -15.0801 -1.11345 70.8562
CA 2.99256 -11.4862 42.5721
CA -21.5875 -9.34767 59.9165
CA -14.7021 14.496 64.2541
CA -28.8586 -5.46303 62.736
CA -8.02312 31.0641 40.4569
CA -35.8831 12.4102 73.3898
CA -9.71969 27.0781 15.6228
CA -24.6615 11.2891 54.4228
CA -19.6972 12.0298 50.1253
CA -30.4136 0.178428 67.6733
CA -19.5363 -3.42575 55.1183
CA -15.6955 8.47305 55.384
CA -34.2822 21.6647 68.9552
CA -23.4906 18.6795 68.6463
CA -10.9948 10.3064 45.9963
CA -26.4173 -6.90983 47.6415
CA -32.0515 19.5203 56.0009
CA -37.9494 -10.1353 50.1553
CA -44.0414 13.3284 53.2929
CA -29.2411 24.8802 15.4065
CA -10.1832 0.684644 62.3497
CA -19.4448 4.22419 78.7208
CA -42.3615 -8.57659 55.9744
CA -29.2024 -14.3043 46.9853
CA -14.9803 24.8872 19.9714
CA -0.614863 -0.883499 50.2582
CA -7.93905 -5.90422 66.3123
CA -33.358 30.1003 42.5834
CA -12.7196 11.3838 42.1799
CA -5.74873 21.9289 26.7705
CA -35.1882 23.0827 62.8464
CA -49.1723 -2.39117 35.6882
CA -32.7384 13.5587 72.9642
CA -23.4996 -5.6613 63.9322
CA -18.7385 10.9336 37.4864
CA -37.222 -11.1624 53.7966
CA -16.0885 -4.15914 85.6348
CA -34.3021 -7.60524 61.0448
CA -49.5526 -0.727908 53.3458
CA -12.5995 5.6606 59.5965
CA -27.3897 20.4114 33.9496
CA -29.0666 26.285 17.335
CA -17.7856 13.3589 71.3455
CA -12.1479 16.2876 44.3586
CA -42.5618 -6.16025 53.401
CA -12.2275 9.95781 70.8406
CA -17.8212 -4.47846 52.4614
CA 4.04882 -15.3103 54.4764
CA -9.58407 11.7083 28.6067
CA -36.1669 30.7817 44.2385
CA -12.2333 -10.4443 66.1282
CA -37.5479 4.11389 57.8028
CA -34.3026 28.2478 48.1676
CA -21.0252 15.6892 72.7169
CA -19.8097 26.4997 81.2956
CA -24.2706 -3.17005 64.3755
CA -7.20395 23.5638 18.9306
CA -33.6633 11.8956 45.0397
CA -33.3442 -1.85415 51.0231
CA -28.387 14.5817 19.1601
CA -39.6479 30.3492 60.6064
CA -38.355 9.97671 52.1731
CA -26.8729 30.2836 36.6851
CA -16.1444 23.3771 80.9444
CA -17.0039 18.3635 14.2362
CA -15.6836 11.8597 57.7473
CA -14.6449 25.9711 39.8441
CA 0.593887 -14.2785 64.014
CA -3.05279 9.05952 65.8452
CA 7.04334 -7.41918 49.4918
CA -21.7437 17.7678 72.5268
CA -22.1339 -8.23623 67.0737
CA -34.9066 6.4648 54.3543
CA -16.8925 6.12916 56.8357
CA -24.1995 10.6237 47.8703
CA -23.1141 3.06895 64.9322
CA -23.2826 5.53465 48.128
CA -20.1188 6.03334 74.504
CA -24.983 14.9891 10.0137
CA -39.0399 25.1903 75.6664
CA -10.9519 -10.1298 64.1774
CA -16.1234 4.52797 44.8858
CA -42.634 31.8268 61.6585
CA -13.932 -7.46355 68.4249
CA -21.8666 18.7079 13.31
CA -11.5451 -5.04828 78.9156
CA -31.6621 16.9274 76.5136
CA -21.7352 19.677 77.3613
CA -39.4785 24.6259 51.8487
CA -22.2458 -5.22145 73.1811
CA -52.0079 -0.960161 39.4376
CA -14.2646 -3.97146 72.7205
CA -32.4141 4.86857 68.5664
CA -31.3959 -1.48706 58.9082
CA -29.9227 13.4659 19.7727
CA -5.3883 19.7687 42.0323
CA -1.36117 27.0248 27.0397
CA -20.6743 -9.44108 66.4772
CA -17.3106 24.0495 68.4429
CA -28.1029 15.8488 36.2502
CA -19.7945 -13.0793 67.8904
CA -34.3087 -2.68337 56.1179
CA -38.5519 13.4635 43.619
CA -30.1036 14.5539 74.8995
CA -18.7955 4.6265 54.1406
CA -34.1769 8.28668 56.0972
CA -39.3781 -10.5444 51.3517
CA -25.4626 13.3679 77.4732
CA -18.0397 -3.59804 58.6009
CA -33.3726 14.0307 71.1385
CA -25.7782 -3.82205 56.0598
CA -33.2446 26.7987 59.1714
CA -38.0746 7.87524 56.5676
CA -16.3903 30.722 44.36
CA -29.0552 -3.65164 52.1518
CA -16.2664 1.1101 70.4731
CA -33.8468 12.7377 17.4847
CA -11.7437 -1.6213 84.3364
CA -34.2217 16.1762 71.2331
CA -2.67512 -15.448 68.9858
CA -39.8226 -9.66294 53.7242
CA -7.82683 11.7759 64.5279
CA -27.0555 14.1177 82.9091
CA -16.8496 -8.51037 58.7323
CA -27.2096 19.5619 52.0795
CA -24.8777 11.8735 50.0919
CA -47.7373 12.0082 54.3755
CA -16.023 -3.72921 88.1788
CA -35.9369 24.7377 73.2862
CA -25.3525 15.4481 12.7509
CA -22.5078 -2.69421 68.4408
CA -17.666 15.9445 69.7128
CA -9.01409 25.5991 14.5345
CA -36.1448 22.7149 73.3572
CA -37.3761 8.251 44.7444
CA -26.1237 17.8338 11.2184
CA 0.907129 15.9411 66.5963
CA -37.5682 22.7773 71.0161
CA -12.1552 18.1231 27.0757
CA -17.3422 12.1281 48.6446
CA 5.23733 -9.65082 46.2176
CA -7.17283 25.8785 15.5009
CA -21.236 -8.09826 56.29
CA -32.4915 14.985 50.7753
CA -35.8443 -5.9841 71.0096
CA -1.12472 -4.31304 54.1052
CA -23.0134 24.7261 72.5963
CA -9.93611 27.9172 39.7592
CA -33.3478 23.2795 70.0958
CA 7.71267 -11.9336 38.8832
CA -21.6352 -3.6167 75.1194
CA -7.54168 27.8852 14.0547
CA -33.5305 5.22208 59.8021
CA -21.1687 28.5003 80.615
CA -25.1911 -8.73355 59.5035
CA -10.1345 14.2751 66.0591
CA -7.10966 17.8032 36.2908
CA -6.66103 29.728 15.7956
CA -31.6521 13.3743 48.2435
CA -30.6919 19.4431 53.7535
CA -22.2584 15.523 76.8779
CA -9.84124 16.6791 36.3034
CA -20.3063 -0.779345 38.968
CA -56.0049 0.600215 39.1381
CA -22.3455 -15.6376 42.7114
CA -26.106 28.0551 37.6929
CA -11.2235 -1.79198 69.4249
CA -27.0099 8.84052 18.4342
CA -38.268 32.9453 60.8965
CA -29.7572 3.35778 64.5636
CA -18.6438 16.9596 56.8116
CA -32.4204 18.4915 69.7819
CA -32.2384 15.6221 73.9183
CA -1.31546 -16.9682 71.6189
CA -11.7236 -3.35525 75.1791
CA -19.9808 -11.857 43.0279
CA -41.2977 18.2124 43.0049
CA -32.5957 -1.45085 54.6834
CA -47.4848 1.12331 35.7431
CA -19.9207 -6.51188 56.3316
CA -39.1631 -5.81762 57.8788
CA -20.63 7.83615 57.3948
CA -40.1561 4.14136 65.7006
CA 2.10897 -1.69371 48.7741
CA -3.96994 -11.4997 64.4734
CA -22.7413 17.1171 84.0015
CA -18.9973 7.75178 35.9854
CA -3.72477 -9.17475 56.8115
CA -37.6867 -8.74528 51.8612
CA -25.7112 17.2145 19.0098
CA -22.912 17.7916 18.9007
CA -39.6866 26.5778 54.5088
CA -33.8844 6.14444 72.4858
CA -44.6559 -3.0857 55.3516
CA -25.98 25.0026 33.6814
CA -39.037 11.1099 48.5376
CA -16.9815 20.9211 67.7095
CA -2.45202 31.5987 16.3079
CA -36.669 8.04545 69.1457
CA -32.1765 19.1873 67.5742
CA -18.7667 31.0516 47.448
CA -23.4046 -0.437793 35.6759
CA -32.3473 -7.77436 49.8048
CA -12.9083 -6.73186 77.3659
CA -22.5765 14.8915 10.5376
CA -6.69178 22.5155 32.782
CA -37.8579 3.82419 64.8087
CA -37.7192 26.2001 57.1841
CA -12.8581 4.22075 67.8472
CA -26.2011 14.0471 74.7004
CA -50.4764 -4.69252 37.2462
CA -6.04244 14.0202 65.3784
CA -28.3513 23.139 36.1233
CA 4.10162 -5.22076 52.48
CA -18.8301 23.4756 36.296
CA -12.9692 14.6578 30.6549
CA -19.2793 36.5868 19.4073
CA -18.1333 10.339 62.5746
CA -16.0772 -6.59026 82.8222
CA -60.4925 0.482688 41.8197
CA -15.5536 -2.62062 84.8454
CA -16.5626 24.1029 38.7603
CA -11.1336 31.6284 42.0781
CA -41.7224 -3.05506 59.0029
CA -11.6642 9.3245 64.2982
CA -13.4572 30.0373 79.2745
CA -26.7527 5.33319 53.7791
CA -9.09621 23.376 12.9758
CA -35.3156 13.6047 64.8178
CA -31.6928 14.9085 63.5333
CA -37.5342 11.8651 51.8984
CA -16.1437 23.1111 34.9486
CA -31.1875 4.06622 52.1668
CA 3.21115 -14.3021 39.8419
CA -14.7116 22.1261 78.0869
CA -12.0923 34.8313 38.9483
CA -14.5141 -5.23545 78.9643
CA -25.0404 15.5434 20.4303
CA -16.8846 23.9858 42.0019
CA -46.3031 5.44665 58.8054
CA -29.1348 7.24362 51.9829
CA -12.7195 16.9491 57.7442
CA -19.1663 29.912 16.8154
CA -37.4287 17.9638 58.2287
CA -12.4757 18.133 23.9062
CA -45.8461 0.591876 37.2504
CA -7.10984 30.2149 36.2198
CA -32.729 -1.42389 61.4695
CA -52.2213 12.0716 53.0634
CA -34.3812 31.9139 50.8337
CA -30.1642 14.1952 16.7649
CA -24.4027 -4.84873 52.0623
CA -1.62879 -15.0902 41.0145
CA -19.4309 -6.78139 42.2422
CA -17.2217 18.499 66.6778
CA -17.9184 29.6581 20.3176
CA -41.0633 -2.03278 47.1566
CA 0.0392066 26.258 30.1706
CA -13.718 8.31362 60.7575
CA -14.7029 -5.03055 69.0848
CA -17.481 16.8786 78.3586
CA -40.1323 18.1454 60.6544
CA -29.6339 31.6146 42.0109
CA -29.608 15.4156 21.2629
CA -44.1746 8.05853 56.7329
CA -25.3318 13.5266 83.2841
CA -1.23565 -12.3878 68.9065
CA -24.4401 19.9844 7.94091
CA -18.0044 -5.40404 42.8305
CA 1.4226 7.21856 71.121
CA -20.862 19.9095 68.3522
CA -0.853707 -13.4065 62.4204
CA -30.0754 -8.38339 48.8332
CA -11.3636 -5.91535 63.6791
CA -17.7126 -6.09955 48.1229
CA -30.5394 23.548 67.8651
CA -54.6009 -2.22582 40.9918
CA -37.0618 10.8782 71.1425
CA -41.1005 25.0429 52.7649
CA -41.0803 12.5329 15.7
CA -25.3093 -0.975251 59.7521
CA -11.4201 18.1195 40.3169
CA -19.5589 15.8089 82.7652
CA -2.68846 21.5222 38.356
CA -34.1466 24.4283 60.2433
CA -17.0219 6.37795 50.1668
CA -13.2815 1.6923 62.4843
CA -17.3228 8.97729 58.6525
CA -22.918 -6.43249 46.688
CA -42.7549 4.46663 42.2649
CA -38.3279 6.43352 43.157
CA -36.9094 14.2093 60.4515
CA -2.85475 19.7986 37.589
CA -46.9731 18.0736 52.099
CA -44.3657 -1.2412 59.0198
CA -17.531 -8.41775 53.7255
CA -16.835 26.0286 21.5318
CA -7.51398 23.6233 43.7827
CA 3.05489 -12.8398 54.163
CA -31.4507 3.37236 65.8006
CA -28.167 8.56444 55.1792
CA -17.3141 19.6701 39.0351
CA -12.2347 -3.69454 56.2942
CA -17.7505 27.8976 21.7086
CA -21.4418 -5.50715 45.0486
CA -24.3102 30.0035 38.213
CA -25.6114 14.8378 38.2963
CA -26.8033 11.4539 50.3923
CA -11.6703 13.9823 67.3133
CA -41.8562 -8.9483 52.5035
