489

CA -33.2925 -7.53296 67.8145
CA -12.3851 -5.95497 68.7184
CA -18.7909 9.61115 64.9273
CA -15.4297 20.1441 55.2654
CA -30.3089 13.095 37.8539
CA 7.1171 -10.633 51.0022
CA -15.921 21.3198 17.3553
CA -20.1531 14.7463 49.2949
CA -38.7064 1.45433 55.7408
CA -19.2796 18.158 64.0576
CA -28.2793 -12.2448 46.5375
CA -18.5133 11.1575 40.468
CA -11.3634 14.2614 43.4635
CA -42.4971 17.75 53.7395
CA -28.5934 22.6267 64.0942
CA -41.8627 22.7765 55.1179
CA -9.10608 -3.94876 81.8755
CA -17.2236 25.3674 16.5344
CA -18.7081 22.1165 76.5194
CA -30.4611 27.4385 69.3159
CA -24.7124 -11.8695 57.8664
CA -40.0239 9.27859 54.0503
CA -17.4223 -11.5636 50.9995
CA -18.0299 31.532 17.5924
CA -18.7602 20.1489 61.5168
CA -32.4236 -5.41212 51.5205
CA -21.0865 -0.791792 44.2742
CA -4.40212 26.9328 29.4838
CA -25.6894 1.66706 58.5183
CA -23.3992 21.0788 66.4782
CA -30.408 -5.75711 64.0276
CA -9.65693 -13.701 65.3669
CA -5.64456 10.4053 70.0907
CA -30.4336 16.1848 70.3975
CA -22.1621 16.2479 36.6036
CA -19.4821 4.18729 53.4464
CA -19.963 -4.27492 52.0711
CA -44.498 -3.58041 52.6013
CA -18.3335 20.5469 34.3289
CA -34.0862 26.4815 69.1426
CA -27.9126 18.6679 38.0293
CA -27.7435 -8.90462 70.7376
CA -34.6001 28.3618 44.4733
CA -15.2241 20.8881 60.1745
CA -37.9289 -3.72702 70.4567
CA -19.9945 25.5522 36.0416
CA -27.9751 19.2664 18.3083
CA -31.5605 13.363 23.5707
CA -8.58818 14.4873 19.7656
CA -14.5159 4.55407 64.7875
CA -25.1608 15.066 36.3563
CA -17.8326 -5.05514 55.0418
CA -20.0734 21.3266 40.3558
CA -12.8483 18.1606 44.4024
CA -38.8817 18.3899 47.3001
CA -8.23468 17.8761 18.6426
CA -20.313 -5.93516 80.8528
CA -14.552 17.8312 25.9564
CA -11.8633 33.228 45.5162
CA -9.04312 -0.862335 53.1135
CA -12.946 2.28882 56.6894
CA -18.1559 20.2117 38.6945
CA -13.684 1.26699 69.6474
CA -21.5673 -2.32954 41.1062
CA -38.694 8.3988 50.2347
CA -21.0205 -10.3394 39.4887
CA -39.5099 -1.3199 55.0013
CA -24.6225 -7.19226 62.792
CA 2.40874 -8.09141 53.3968
CA -22.7051 13.6284 86.1254
CA -9.44004 2.16198 53.7
CA -5.01802 -3.80801 65.2473
CA -23.2891 4.85805 55.7484
CA -17.9067 6.44019 64.9864
CA -11.8014 16.0738 24.7373
CA -14.1062 7.30494 53.9491
CA -17.5086 23.3815 20.8813
CA -39.8719 11.5827 47.3698
CA -43.7658 -1.98032 39.8798
CA -39.8422 -5.36344 43.3391
CA -33.9401 10.4409 53.3439
CA -22.5523 23.2761 18.8111
CA -18.6059 7.87294 61.9501
CA -24.9316 -0.429836 57.4436
CA -40.6501 17.3981 50.8476
CA -17.4909 22.9348 32.3551
CA -12.9526 16.2152 26.5619
CA -57.4122 -5.19495 35.4481
CA -37.2579 19.877 74.2882
CA -39.2146 19.4911 76.4233
CA -17.5669 -0.632465 54.0718
CA -26.7081 -1.49278 50.1029
CA -22.7857 8.60912 50.0127
CA -17.5558 -6.66641 40.7109
CA 0.821255 13.7738 72.8756
CA -13.7622 18.44 58.95
CA -12.8712 23.5253 59.0618
CA -0.430754 16.4103 70.2488
CA -27.6665 15.2229 38.266
CA -33.7469 14.1726 44.0557
CA -8.29865 -7.46841 67.6063
CA -19.6955 15.8711 46.9349
CA -38.1745 -2.39818 67.3166
CA 1.3518 16.5336 72.2516
CA -56.9354 -1.07905 42.1173
CA 2.119 -2.27925 51.2053
CA -3.64547 7.14731 63.2002
CA -41.0561 14.1036 52.5423
CA -17.0934 -7.17253 86.9782
CA -36.2582 7.23367 46.5062
CA -40.6986 -5.23628 47.1926
CA -7.41247 17.1905 20.9385
CA -1.02732 -11.8908 65.1938
CA 6.32717 -4.84474 50.9777
CA -9.69368 19.1057 35.3345
CA -16.0468 5.18697 70.1558
CA -10.6146 5.33132 63.845
CA -18.9743 21.8195 19.8241
CA -39.753 2.30512 60.5986
CA -3.22231 -11.6668 38.9966
CA -1.82318 -9.42465 58.4887
CA -25.5079 -9.71928 55.2596
CA -24.2447 -6.78832 55.0021
CA -6.0601 26.3411 38.3573
CA -36.3035 -3.14123 48.2893
CA -9.47131 16.7954 31.1999
CA -17.1817 12.6559 68.7603
CA -0.870158 3.86816 67.1963
CA -24.0768 -14.1857 46.9679
CA -30.9999 10.0784 53.5557
CA -1.18947 -6.24074 55.07
CA -34.3624 6.57214 56.8723
CA -3.59308 25.3333 29.2856
CA -24.026 21.3866 12.4771
CA -43.7794 18.0394 55.641
CA -35.3784 16.7099 48.3107
CA -15.239 -7.53199 64.9907
CA -22.1137 5.45915 38.0242
CA -37.7772 16.4895 58.143
CA -12.3854 9.4458 65.526
CA -5.62426 -1.74878 82.216
CA -17.6228 17.3821 38.0412
CA -2.47742 -16.0259 60.1545
CA -32.0542 -3.42449 55.5479
CA -16.197 3.17476 59.33
CA 1.34518 -1.64835 53.5782
CA -19.8871 34.1533 18.5522
CA -0.471049 -14.3432 66.721
CA -13.1339 15.4008 21.0365
CA -25.0098 13.9897 69.2536
CA -4.18582 -5.92427 65.6218
CA -37.2369 -4.26978 59.1728
CA -38.6595 27.4209 46.4029
CA 2.8826 17.727 73.4273
CA 1.08416 -16.0267 62.3453
CA -26.0702 -12.4338 47.5533
CA -17.2014 30.6401 76.2253
CA -16.492 18.2596 36.6011
CA -15.3325 9.40823 41.646
CA -21.5063 8.07857 51.6617
CA -18.6175 9.21809 77.3044
CA -17.2917 26.0562 77.5456
CA -32.3041 0.870587 68.3523
CA -59.7098 -1.47317 40.2691
CA -31.6195 30.9633 53.4093
CA -19.1127 -7.15558 88.6708
CA -19.8241 21.7669 16.1712
CA -23.4525 -11.4891 68.8534
CA -40.0042 -1.1217 68.538
CA -24.073 14.7032 41.4774
CA -28.9565 2.50171 65.4188
CA -6.33205 8.91064 66.3579
CA -8.03374 24.6982 41.3562
CA -34.1389 28.5647 72.3681
CA -12.8102 16.8643 33.9161
CA -22.1762 19.4967 80.3984
CA -18.0514 16.4032 63.7028
CA -20.206 -2.31484 45.3213
CA -15.0801 -1.11345 70.8562
CA -37.5315 27.8588 52.7919
CA -21.5875 -9.34767 59.9165
CA -14.7021 14.496 64.2541
CA -13.4067 9.63763 62.0321
CA -26.2394 21.1783 15.1329
CA -21.9707 -5.31575 51.7339
CA -9.71969 27.0781 15.6228
CA -24.6615 11.2891 54.4228
CA -19.6972 12.0298 50.1253
CA -33.2277 -7.90632 72.3847
CA -34.7878 -10.0911 49.1083
CA -15.6955 8.47305 55.384
CA -18.8498 -5.91167 60.4853
CA -25.0587 22.1456 63.7362
CA -19.1051 10.7864 69.259
CA -28.0306 6.27534 56.7747
CA -33.6346 12.8778 50.1571
CA -37.9494 -10.1353 50.1553
CA -43.1436 -2.34778 46.2715
CA -29.2411 24.8802 15.4065
CA -19.1152 -0.227023 46.1845
CA -37.0282 16.4184 46.7478
CA -50.9613 4.49631 35.7966
CA -29.2024 -14.3043 46.9853
CA -14.9803 24.8872 19.9714
CA -41.7768 22.7558 39.9618
CA -7.93905 -5.90422 66.3123
CA -33.358 30.1003 42.5834
CA -12.7196 11.3838 42.1799
CA -20.0463 39.1951 20.6139
CA -0.641947 -15.8093 61.1053
CA -21.9668 -11.9256 92.8059
CA -15.0116 27.2311 14.2203
CA -23.4996 -5.6613 63.9322
CA -18.7385 10.9336 37.4864
CA -23.5223 10.6145 44.7306
CA -24.1058 24.5241 74.879
CA -34.3021 -7.60524 61.0448
CA -49.5526 -0.727908 53.3458
CA -12.5995 5.6606 59.5965
CA -27.3897 20.4114 33.9496
CA -34.8584 21.2338 67.0733
CA -38.7681 -4.22045 63.2192
CA -22.6782 15.056 47.4354
CA -42.5618 -6.16025 53.401
CA -20.5232 1.74173 81.7346
CA -12.603 -8.00552 81.4352
CA -24.0961 14.4767 50.5656
CA -9.58407 11.7083 28.6067
CA -36.1669 30.7817 44.2385
CA -40.3143 2.9077 55.5609
CA -24.5985 -6.00065 70.0465
CA -34.3026 28.2478 48.1676
CA -49.5323 2.92338 36.443
CA -48.0349 -5.49619 52.9943
CA -24.2706 -3.17005 64.3755
CA -7.20395 23.5638 18.9306
CA -33.6633 11.8956 45.0397
CA -33.3442 -1.85415 51.0231
CA -35.2909 23.3155 75.1144
CA -39.6479 30.3492 60.6064
CA -38.355 9.97671 52.1731
CA -31.797 26.4409 70.3976
CA -16.1444 23.3771 80.9444
CA -17.0039 18.3635 14.2362
CA -41.0771 15.9352 46.6343
CA -14.6449 25.9711 39.8441
CA -34.3658 35.0934 51.5364
CA -3.05279 9.05952 65.8452
CA -35.8255 2.78706 71.7732
CA -21.7437 17.7678 72.5268
CA -15.4503 25.4173 36.1909
CA -34.9066 6.4648 54.3543
CA -27.1056 -0.27619 61.2308
CA -24.1995 10.6237 47.8703
CA -8.88708 2.7485 58.7654
CA -16.4188 8.10873 51.5023
CA -14.7262 24.2233 32.0912
CA -13.2489 7.52547 50.0629
CA -39.0399 25.1903 75.6664
CA -10.9519 -10.1298 64.1774
CA -16.1234 4.52797 44.8858
CA -41.5527 12.9103 45.6538
CA -13.932 -7.46355 68.4249
CA -30.4484 -5.60502 73.3172
CA -11.5451 -5.04828 78.9156
CA -33.3493 35.124 45.6012
CA -9.55936 1.35173 65.9658
CA -35.5744 25.2397 58.0019
CA -22.2458 -5.22145 73.1811
CA -52.0079 -0.960161 39.4376
CA -14.2646 -3.97146 72.7205
CA -27.7418 -9.97965 67.9263
CA -33.9444 3.26517 69.3221
CA -29.9227 13.4659 19.7727
CA -5.3883 19.7687 42.0323
CA -11.7295 1.74042 73.3273
CA -35.9011 -5.12285 63.1275
CA -11.6664 17.5452 54.9079
CA -28.1029 15.8488 36.2502
CA -38.106 7.20449 62.2523
CA -34.3087 -2.68337 56.1179
CA -38.5519 13.4635 43.619
CA 2.82198 -4.39871 47.5376
CA -7.6555 13.4105 66.4134
CA -34.1769 8.28668 56.0972
CA -39.3781 -10.5444 51.3517
CA -39.6304 1.94733 64.6247
CA -20.1201 11.8322 74.392
CA -36.0496 3.37455 59.3
CA -36.7806 18.5702 67.6891
CA -33.2446 26.7987 59.1714
CA -15.7748 -10.2994 65.3746
CA -16.3903 30.722 44.36
CA -29.0552 -3.65164 52.1518
CA -20.638 17.4725 32.2141
CA -33.8468 12.7377 17.4847
CA -3.16647 -19.3889 40.8204
CA -33.9402 27.7608 41.6869
CA -35.8947 30.9339 40.9368
CA -39.8226 -9.66294 53.7242
CA -20.8798 -5.85886 40.4421
CA -16.8987 8.65409 79.0941
CA -9.99624 16.478 26.1029
CA -38.4812 15.673 52.9114
CA -17.6752 20.6741 36.9274
CA -47.7373 12.0082 54.3755
CA -5.93391 27.8488 15.2924
CA -35.9369 24.7377 73.2862
CA -3.49398 -12.9311 59.2084
CA -39.5666 -12.3828 55.2354
CA -17.666 15.9445 69.7128
CA -18.0521 13.1964 77.1495
CA -21.0316 13.6509 75.2632
CA -25.1099 16.1324 44.6211
CA -37.6743 19.3001 72.051
CA -31.6859 19.2695 74.1787
CA -40.8717 4.233 57.3563
CA -12.1552 18.1231 27.0757
CA 4.64096 -7.45494 44.123
CA -24.8615 23.1908 77.2881
CA -7.17283 25.8785 15.5009
CA -38.6812 13.2259 56.5936
CA -36.4779 -9.01019 47.1555
CA -35.8443 -5.9841 71.0096
CA -1.12472 -4.31304 54.1052
CA -23.0134 24.7261 72.5963
CA -9.93611 27.9172 39.7592
CA -33.8849 13.8372 74.1423
CA -12.9878 -0.00937863 68.1122
CA -21.6352 -3.6167 75.1194
CA -30.244 -1.66462 55.3772
CA -38.5813 -8.71936 59.2161
CA -25.5365 -3.35034 60.7051
CA -38.1884 17.2149 62.1189
CA -10.1345 14.2751 66.0591
CA -35.4241 -2.79057 68.9317
CA -11.8019 -8.21371 79.7198
CA -38.0846 20.9468 71.2608
CA -45.3549 -0.303824 38.8453
CA -22.2584 15.523 76.8779
CA -12.799 13.9017 64.5359
CA 5.84995 -9.75506 41.1927
CA -56.0049 0.600215 39.1381
CA -22.3455 -15.6376 42.7114
CA -26.106 28.0551 37.6929
CA -33.3115 -5.47432 58.7889
CA -57.3793 -4.32122 38.5696
CA -38.4572 7.67735 45.293
CA -1.04227 12.3553 68.8275
CA -34.8468 16.4946 64.4836
CA -4.32525 -13.7782 42.6971
CA -32.2384 15.6221 73.9183
CA -17.1039 9.22365 42.2979
CA -26.1578 -9.93237 69.646
CA -19.9808 -11.857 43.0279
CA 2.44437 -9.54757 50.4426
CA -32.5957 -1.45085 54.6834
CA -47.4848 1.12331 35.7431
CA -19.9207 -6.51188 56.3316
CA -52.459 4.12679 34.5484
CA -12.7116 9.08503 59.7804
CA -17.626 7.21337 58.398
CA 2.10897 -1.69371 48.7741
CA -20.3745 21.0947 62.4028
CA -16.5945 -3.31184 72.6575
CA -18.9973 7.75178 35.9854
CA 1.11655 -13.9532 58.2092
CA -37.6867 -8.74528 51.8612
CA -22.7062 -7.96897 66.9556
CA -22.912 17.7916 18.9007
CA -9.83485 10.7254 25.7834
CA -30.4478 23.1817 39.3989
CA -34.9577 10.8366 44.0747
CA -26.0988 18.7302 33.2097
CA -35.3367 -3.76334 43.6526
CA -24.0256 17.6325 75.47
CA -2.45202 31.5987 16.3079
CA -34.2195 23.693 60.2175
CA -30.0628 1.56082 69.1516
CA -18.7667 31.0516 47.448
CA -18.1815 3.48831 77.9083
CA -32.3473 -7.77436 49.8048
CA -12.9083 -6.73186 77.3659
CA -26.5312 -8.67216 57.7664
CA -6.69178 22.5155 32.782
CA -29.698 21.9568 68.7209
CA -37.7192 26.2001 57.1841
CA -7.45988 -19.2419 61.444
CA -26.2011 14.0471 74.7004
CA -15.6708 -6.66296 69.0725
CA -6.86927 -24.089 60.7928
CA -17.4631 -0.63783 79.4198
CA 4.10162 -5.22076 52.48
CA -18.8301 23.4756 36.296
CA -16.5554 6.26672 61.5821
CA -19.2793 36.5868 19.4073
CA -22.5235 29.8181 36.4037
CA -16.0772 -6.59026 82.8222
CA -60.4925 0.482688 41.8197
CA -3.54747 6.28482 70.6239
CA -5.9996 26.7514 18.8109
CA -11.1336 31.6284 42.0781
CA -41.7224 -3.05506 59.0029
CA -23.8434 11.6287 46.212
CA -13.4572 30.0373 79.2745
CA -15.793 29.4676 14.4036
CA -22.7305 -2.44998 36.779
CA -25.1775 24.4864 64.3342
CA -31.6928 14.9085 63.5333
CA -37.5342 11.8651 51.8984
CA -43.4938 8.42331 55.3845
CA -37.0119 0.469793 52.8434
CA 3.21115 -14.3021 39.8419
CA -14.7116 22.1261 78.0869
CA -4.14599 -19.0246 61.9023
CA -14.5141 -5.23545 78.9643
CA -21.5818 3.82753 33.8115
CA -39.926 6.79719 39.5037
CA -19.5095 -11.2816 41.323
CA -12.3181 26.5924 13.9432
CA -37.5603 2.20183 53.2989
CA -19.1663 29.912 16.8154
CA -40.5311 20.781 43.5596
CA -3.744 -9.76949 61.5683
CA -1.75044 17.4669 74.2747
CA -24.9214 -9.84246 71.6034
CA -6.54524 4.69292 50.6342
CA -17.6749 -5.65661 44.6222
CA -34.3812 31.9139 50.8337
CA -30.1642 14.1952 16.7649
CA -24.4027 -4.84873 52.0623
CA -1.62879 -15.0902 41.0145
CA -25.7935 20.1422 66.5287
CA -35.9928 -2.61983 65.2794
CA -35.7763 14.5683 44.8608
CA -41.2313 2.17265 38.9179
CA 0.0392066 26.258 30.1706
CA -27.1467 27.0118 71.1329
CA 0.492758 -9.42345 58.4744
CA -16.8303 3.73734 65.2861
CA -40.1323 18.1454 60.6544
CA -34.452 -8.93952 50.4516
CA -36.0614 -7.5904 50.6249
CA -36.2954 14.4528 77.6562
CA -25.3318 13.5266 83.2841
CA -4.45321 22.6924 45.103
CA -24.4401 19.9844 7.94091
CA -18.0044 -5.40404 42.8305
CA 1.4226 7.21856 71.121
CA -32.6892 11.6683 21.5811
CA -22.9167 -0.689221 44.296
CA -15.4005 -9.79602 42.7772
CA -16.7685 11.1746 59.0887
CA -22.2282 17.404 81.8559
CA -19.3291 17.5736 18.2671
CA -18.1026 9.87178 43.6922
CA -20.8678 6.1194 55.7397
CA -41.1005 25.0429 52.7649
CA -39.9487 -3.54126 47.2282
CA -25.3093 -0.975251 59.7521
CA -36.0681 -11.2886 50.7315
CA -19.5589 15.8089 82.7652
CA -26.128 -6.90415 65.3037
CA -23.3565 16.7175 62.4765
CA -17.0219 6.37795 50.1668
CA -13.2815 1.6923 62.4843
CA -17.3228 8.97729 58.6525
CA -1.73266 20.6182 40.3518
CA -29.8964 -3.97712 55.0441
CA -38.3279 6.43352 43.157
CA -36.9094 14.2093 60.4515
CA -2.85475 19.7986 37.589
CA -32.6953 -7.65739 53.1182
CA -19.0103 24.2225 18.7461
CA -17.531 -8.41775 53.7255
CA -4.72037 -18.9522 45.3454
CA -6.71318 16.5159 42.2273
CA 3.05489 -12.8398 54.163
CA -42.8756 -3.79484 48.0044
CA -28.167 8.56444 55.1792
CA -21.0135 24.9192 79.9364
CA -36.5328 26.087 51.7994
CA -25.6838 10.8619 86.4279
CA -34.9285 15.8063 54.8525
CA -24.3102 30.0035 38.213
CA -25.6114 14.8378 38.2963
CA -18.9408 -12.0808 88.8031
CA -36.2938 10.3425 73.8077
CA -30.9972 0.187168 62.4149
