489

CA -33.6561 26.854 70.456
CA -15.458 -1.35152 72.4976
CA -22.8279 13.741 52.0583
CA -26.2618 19.1008 42.2452
CA -30.3089 13.095 37.8539
CA 7.1171 -10.633 51.0022
CA -31.5574 24.493 63.0026
CA -9.53275 27.6121 82.2719
CA -30.9617 12.9846 46.5047
CA -19.2796 18.158 64.0576
CA -16.521 25.2199 14.2308
CA -18.5133 11.1575 40.468
CA -9.55254 22.9865 48.0119
CA -42.4971 17.75 53.7395
CA -38.1645 11.6595 42.6383
CA -26.8271 -4.22047 71.6565
CA -9.10608 -3.94876 81.8755
CA -9.50179 11.0246 60.5343
CA -36.1602 -13.2517 47.017
CA -30.4611 27.4385 69.3159
CA -24.7124 -11.8695 57.8664
CA -22.3005 15.4267 49.6142
CA -19.6978 10.9184 74.372
CA -18.0299 31.532 17.5924
CA -18.7602 20.1489 61.5168
CA -31.5269 -12.5362 50.8899
CA -24.1085 -18.4523 42.5977
CA -20.6525 27.5716 69.8648
CA -25.6894 1.66706 58.5183
CA -16.709 28.6656 17.6303
CA -2.69778 6.65389 69.1662
CA -42.652 27.7276 51.2641
CA -35.5211 6.25685 58.3584
CA -34.6208 5.84467 62.0033
CA -17.1718 22.4567 19.0204
CA -26.6723 -12.4213 44.4155
CA -23.6196 20.6681 32.3458
CA -44.498 -3.58041 52.6013
CA -18.3335 20.5469 34.3289
CA -9.5519 25.9916 35.0884
CA -37.7673 25.3541 31.6971
CA -27.7435 -8.90462 70.7376
CA -34.6001 28.3618 44.4733
CA -11.7554 -8.64143 84.5149
CA -15.7838 4.20939 55.8548
CA -19.9945 25.5522 36.0416
CA -27.9751 19.2664 18.3083
CA -38.5041 7.50856 41.0062
CA -8.58818 14.4873 19.7656
CA -12.8073 28.9595 34.0217
CA -25.1608 15.066 36.3563
CA -5.16748 19.4543 20.632
CA -31.4374 24.7526 37.1472
CA -6.98997 31.3605 81.086
CA -38.8817 18.3899 47.3001
CA -19.3506 27.8934 68.631
CA -0.766029 -10.0184 61.2208
CA -44.6219 7.20139 53.6989
CA -23.8408 0.980889 63.5028
CA -38.5648 9.09987 43.5406
CA -38.2213 17.2597 58.6094
CA -35.6791 -1.07192 68.4003
CA -39.7604 29.6897 51.9803
CA -21.5673 -2.32954 41.1062
CA -29.1131 16.2584 73.1382
CA -19.7819 4.6164 68.8759
CA -39.5099 -1.3199 55.0013
CA -24.3834 14.2148 69.8825
CA 2.40874 -8.09141 53.3968
CA -4.42613 18.363 18.3021
CA -9.44004 2.16198 53.7
CA -5.01802 -3.80801 65.2473
CA -32.4656 24.0922 55.9467
CA -17.9067 6.44019 64.9864
CA -11.8014 16.0738 24.7373
CA -10.1265 -1.50501 55.767
CA -24.9905 28.9739 36.7569
CA -39.8719 11.5827 47.3698
CA -40.6075 9.08647 60.5881
CA -39.8422 -5.36344 43.3391
CA -22.8439 -10.4091 44.8083
CA -28.8718 26.2101 35.5441
CA -40.2625 3.70206 53.0348
CA -25.5302 24.0232 60.7371
CA -19.9262 -4.51128 77.4541
CA -34.1101 -16.435 40.9697
CA -12.9526 16.2152 26.5619
CA -23.2437 -6.30522 53.5226
CA -40.759 3.66316 58.4783
CA -28.5116 10.0946 72.3941
CA -17.5669 -0.632465 54.0718
CA -26.7081 -1.49278 50.1029
CA -22.7857 8.60912 50.0127
CA -52.7868 -1.81673 41.9776
CA -26.97 -2.94462 60.8533
CA -38.1468 12.9711 48.5262
CA -14.8856 13.1124 65.6481
CA -27.1216 19.1144 67.6384
CA -16.7179 6.08724 55.406
CA -33.7469 14.1726 44.0557
CA -8.29865 -7.46841 67.6063
CA -19.6955 15.8711 46.9349
CA -38.1745 -2.39818 67.3166
CA -23.8692 30.9833 38.6601
CA -23.2021 14.795 39.8702
CA -7.12711 18.6365 34.5286
CA -29.6998 24.3169 40.924
CA -41.0561 14.1036 52.5423
CA -17.0934 -7.17253 86.9782
CA -26.7268 21.6916 32.2064
CA -40.6986 -5.23628 47.1926
CA -23.9457 -7.39552 68.9821
CA -37.8722 15.6338 41.0408
CA -34.0185 17.2973 57.6731
CA -9.69368 19.1057 35.3345
CA -16.0468 5.18697 70.1558
CA -10.6146 5.33132 63.845
CA -18.9743 21.8195 19.8241
CA -33.1392 21.1591 68.756
CA -15.6762 16.147 34.5815
CA -36.2804 -4.54408 61.2335
CA -24.1429 26.3193 68.7004
CA -23.6628 19.1433 66.578
CA -6.0601 26.3411 38.3573
CA -22.1213 14.9968 84.0436
CA -9.47131 16.7954 31.1999
CA -26.2953 11.4668 35.7358
CA -0.870158 3.86816 67.1963
CA -24.0768 -14.1857 46.9679
CA -18.2178 17.9535 22.521
CA -1.18947 -6.24074 55.07
CA -28.6755 25.5477 62.1128
CA -20.2347 -3.24008 66.6986
CA -35.9571 19.7178 59.9704
CA -43.7794 18.0394 55.641
CA -28.7266 -12.5989 45.2433
CA -15.239 -7.53199 64.9907
CA -27.676 -6.38286 59.4561
CA -30.7586 26.6771 17.2212
CA -30.0228 17.2487 77.2022
CA -15.8564 30.4764 79.2341
CA -13.7136 2.2803 75.2537
CA -41.2113 -2.02391 46.8171
CA -14.9331 18.5289 32.5308
CA -16.197 3.17476 59.33
CA -36.0847 36.5405 51.0075
CA -5.09497 13.9881 68.6571
CA -32.8314 14.8832 58.8813
CA -13.1339 15.4008 21.0365
CA -32.689 -17.4869 44.0692
CA -4.18582 -5.92427 65.6218
CA -37.2369 -4.26978 59.1728
CA -32.756 34.2575 50.7251
CA -15.7238 23.2946 31.8597
CA 1.08416 -16.0267 62.3453
CA -26.0702 -12.4338 47.5533
CA -17.2014 30.6401 76.2253
CA -18.7131 -12.9197 53.4782
CA -10.5455 -7.28508 74.1055
CA -30.0598 14.7459 72.3268
CA -8.37254 20.1636 20.7531
CA -17.2917 26.0562 77.5456
CA -32.3041 0.870587 68.3523
CA -36.6426 3.56578 68.3127
CA -22.3636 25.8624 68.7711
CA -10.271 24.4315 37.1445
CA -10.6595 11.424 67.1041
CA 7.40324 -12.599 52.25
CA -40.0042 -1.1217 68.538
CA -10.2699 22.7214 44.6505
CA -45.8269 -1.33737 48.2375
CA -18.6882 -3.20416 79.2016
CA -8.03374 24.6982 41.3562
CA -31.7602 -0.66628 51.9563
CA -12.8102 16.8643 33.9161
CA -23.6402 -6.49192 59.983
CA -18.0514 16.4032 63.7028
CA -20.206 -2.31484 45.3213
CA -38.5269 1.08912 68.151
CA -17.4775 -4.74499 79.5245
CA -25.3845 20.4942 76.8928
CA -29.6594 15.5463 57.9908
CA -13.4067 9.63763 62.0321
CA -26.2394 21.1783 15.1329
CA -21.9707 -5.31575 51.7339
CA -9.71969 27.0781 15.6228
CA -25.5919 24.0113 34.4819
CA -19.6972 12.0298 50.1253
CA -33.2277 -7.90632 72.3847
CA -3.88522 11.0145 70.3192
CA -37.6702 21.7363 60.4001
CA -14.3785 9.36167 53.9242
CA -31.4355 21.55 42.3102
CA -37.3551 29.7654 50.5836
CA -41.7112 -3.37528 39.9362
CA -37.4196 32.2552 42.973
CA -37.9494 -10.1353 50.1553
CA -43.1436 -2.34778 46.2715
CA -29.2411 24.8802 15.4065
CA -17.5616 3.66791 53.7231
CA 0.96061 7.92713 65.0661
CA -21.507 -6.03708 62.7711
CA -30.5089 34.3961 45.4367
CA -46.0323 2.31756 36.2317
CA -16.6595 18.3993 56.2912
CA -7.93905 -5.90422 66.3123
CA -25.1501 -11.6417 67.3275
CA -12.7196 11.3838 42.1799
CA -24.9033 1.02007 70.3232
CA -29.5813 22.4706 65.8316
CA 2.57526 -2.24658 51.5748
CA -28.8165 21.908 32.3585
CA 5.88104 -8.40255 37.8856
CA -17.0219 -4.8798 67.1236
CA -23.5223 10.6145 44.7306
CA -24.1058 24.5241 74.879
CA -34.3021 -7.60524 61.0448
CA -14.9573 26.9715 13.99
CA -12.5995 5.6606 59.5965
CA -37.7769 32.5891 60.9371
CA -34.8584 21.2338 67.0733
CA -18.0714 -15.5699 90.902
CA -26.044 15.0409 64.9787
CA -42.5618 -6.16025 53.401
CA -24.8424 20.9789 63.5963
CA -24.5115 11.9751 74.5585
CA -37.6005 7.61487 50.5843
CA -9.58407 11.7083 28.6067
CA -38.8719 -8.50043 60.9682
CA -40.3143 2.9077 55.5609
CA -24.5985 -6.00065 70.0465
CA -31.5689 25.5743 72.4061
CA -49.5323 2.92338 36.443
CA -15.719 -12.3009 54.8272
CA -24.2706 -3.17005 64.3755
CA -7.20395 23.5638 18.9306
CA -18.8366 -6.57636 71.3947
CA -33.3442 -1.85415 51.0231
CA -35.2909 23.3155 75.1144
CA -39.6479 30.3492 60.6064
CA -38.355 9.97671 52.1731
CA -31.797 26.4409 70.3976
CA -33.622 4.94473 59.173
CA -26.4827 16.0023 37.1872
CA -10.0121 18.4593 15.5383
CA -32.7144 32.2886 52.3848
CA -34.3658 35.0934 51.5364
CA -37.93 25.3316 72.437
CA -35.8255 2.78706 71.7732
CA -45.4372 7.63083 52.0527
CA -29.9653 -0.437881 66.3754
CA -32.8794 31.3562 58.0784
CA -21.5009 -4.22643 62.9458
CA -24.1995 10.6237 47.8703
CA -10.9483 -5.0996 81.52
CA -36.53 34.0415 60.275
CA -28.5622 0.806057 67.7211
CA -34.5851 24.1384 54.3145
CA -20.623 27.8612 14.3024
CA -8.43255 19.5087 64.5464
CA 3.74506 -6.37418 54.5951
CA -31.6434 -4.88652 57.6243
CA -13.932 -7.46355 68.4249
CA -35.0757 -3.78671 53.1983
CA -11.5451 -5.04828 78.9156
CA -33.3493 35.124 45.6012
CA -9.55936 1.35173 65.9658
CA -35.5744 25.2397 58.0019
CA -22.2458 -5.22145 73.1811
CA -52.0079 -0.960161 39.4376
CA -14.2646 -3.97146 72.7205
CA -27.7418 -9.97965 67.9263
CA -16.7099 -9.63656 46.8033
CA -29.9227 13.4659 19.7727
CA -24.1191 -16.5977 45.3776
CA -11.8051 15.096 65.8711
CA -32.8026 27.4763 60.924
CA -10.4535 18.7487 30.5484
CA -28.1029 15.8488 36.2502
CA -38.106 7.20449 62.2523
CA -42.9219 -8.81978 49.8799
CA -18.1116 27.4164 14.6057
CA 2.82198 -4.39871 47.5376
CA -20.522 22.2018 32.2935
CA -13.3751 1.95646 71.8893
CA -39.3781 -10.5444 51.3517
CA 0.834724 -6.78983 65.6146
CA -43.4639 -7.70513 51.6141
CA -27.677 19.5708 40.1798
CA -36.7806 18.5702 67.6891
CA -33.2446 26.7987 59.1714
CA -26.4246 23.9559 62.5462
CA -15.2261 9.29934 79.7833
CA -38.9624 31.3358 44.829
CA -50.4938 4.78228 41.7741
CA -33.8468 12.7377 17.4847
CA -3.16647 -19.3889 40.8204
CA -14.796 0.461884 56.2537
CA -35.8947 30.9339 40.9368
CA -39.8226 -9.66294 53.7242
CA -20.8798 -5.85886 40.4421
CA -37.035 5.54194 60.1961
CA -9.99624 16.478 26.1029
CA -26.8411 20.947 63.3535
CA -17.6752 20.6741 36.9274
CA -31.3811 8.52737 56.0687
CA -5.93391 27.8488 15.2924
CA -15.0259 13.9744 31.1335
CA -3.49398 -12.9311 59.2084
CA -21.5393 21.5448 79.022
CA -17.666 15.9445 69.7128
CA -15.3538 -5.02654 64.8456
CA -21.0316 13.6509 75.2632
CA -19.3285 -11.4118 37.7893
CA -4.05233 4.5089 69.2116
CA -8.87792 21.1172 16.7682
CA -28.9533 25.5499 30.6305
CA -32.3216 20.6636 63.9316
CA 4.64096 -7.45494 44.123
CA -24.8615 23.1908 77.2881
CA -7.17283 25.8785 15.5009
CA -20.3154 -13.48 57.4392
CA -0.580369 -5.50885 52.4796
CA -35.8443 -5.9841 71.0096
CA -18.5945 24.9842 75.6656
CA -23.0134 24.7261 72.5963
CA -9.93611 27.9172 39.7592
CA -33.8849 13.8372 74.1423
CA -32.7596 14.6461 72.8523
CA -31.4659 29.8616 69.448
CA -35.3467 2.17985 66.5953
CA -2.19636 -12.1858 60.9921
CA -15.3184 1.22175 59.8997
CA -35.8071 -0.349464 70.7497
CA -50.1452 0.745114 44.6452
CA 0.426208 -11.6694 62.5938
CA -11.8019 -8.21371 79.7198
CA -27.1232 -14.1081 60.3961
CA -7.05805 26.4531 23.1944
CA -43.9644 14.7772 54.3861
CA -12.799 13.9017 64.5359
CA 5.84995 -9.75506 41.1927
CA -56.0049 0.600215 39.1381
CA -3.14803 26.6816 21.0336
CA -30.3206 27.5928 39.4046
CA -33.3115 -5.47432 58.7889
CA -38.2002 -5.10451 69.8617
CA -38.4572 7.67735 45.293
CA -1.04227 12.3553 68.8275
CA -34.8468 16.4946 64.4836
CA -32.072 30.4752 54.2269
CA -33.3689 33.4878 41.9635
CA -17.1039 9.22365 42.2979
CA -27.7094 -15.773 45.5408
CA -33.5161 23.8277 33.6896
CA 2.44437 -9.54757 50.4426
CA -12.5633 23.6679 42.555
CA 4.45165 -15.2182 64.2094
CA -16.6436 -1.87348 45.2222
CA -23.7646 9.56201 52.0835
CA -12.7116 9.08503 59.7804
CA 1.87013 -4.82679 50.0018
CA -35.7542 11.9969 81.2086
CA -20.3745 21.0947 62.4028
CA -18.0349 -9.92315 50.0923
CA -18.9973 7.75178 35.9854
CA -22.2396 11.2881 53.2667
CA -21.6482 17.0017 46.5302
CA -22.7062 -7.96897 66.9556
CA -22.912 17.7916 18.9007
CA -30.1255 0.930646 72.2939
CA -30.4478 23.1817 39.3989
CA -34.9577 10.8366 44.0747
CA -26.0988 18.7302 33.2097
CA -9.62446 16.5627 46.6088
CA -24.0256 17.6325 75.47
CA -2.45202 31.5987 16.3079
CA -34.2195 23.693 60.2175
CA -30.0628 1.56082 69.1516
CA -40.711 9.38061 42.639
CA -19.4711 -9.5363 39.2644
CA -12.6858 -10.1718 47.4635
CA -29.5414 -4.78477 51.2834
CA -36.2371 32.1529 54.7533
CA -26.2795 17.0064 41.6762
CA -29.0634 2.78978 59.8886
CA -37.7192 26.2001 57.1841
CA -7.45988 -19.2419 61.444
CA -26.2011 14.0471 74.7004
CA -3.59441 17.9778 72.5853
CA -6.86927 -24.089 60.7928
CA -17.4631 -0.63783 79.4198
CA 4.10162 -5.22076 52.48
CA -18.8301 23.4756 36.296
CA -13.3324 26.6573 39.5986
CA -19.2793 36.5868 19.4073
CA -22.5235 29.8181 36.4037
CA -16.0772 -6.59026 82.8222
CA -60.4925 0.482688 41.8197
CA -20.5957 -10.9044 52.5845
CA -5.9996 26.7514 18.8109
CA -2.06012 24.9295 41.9014
CA -29.9992 -16.9453 45.7688
CA -26.5691 0.365157 56.2994
CA -13.4572 30.0373 79.2745
CA -15.793 29.4676 14.4036
CA -22.7305 -2.44998 36.779
CA -27.2045 24.4272 15.4157
CA -15.1376 4.76906 52.241
CA -24.6192 -16.1196 66.1161
CA -43.4938 8.42331 55.3845
CA -13.0034 16.3735 31.9889
CA 3.21115 -14.3021 39.8419
CA -36.4869 23.7461 67.9575
CA -4.14599 -19.0246 61.9023
CA -25.2281 -5.64359 75.7366
CA -31.8866 -12.0151 55.4726
CA -17.869 3.85122 78.1269
CA -19.5095 -11.2816 41.323
CA -34.7707 18.6844 72.0171
CA -37.5603 2.20183 53.2989
CA -34.5378 20.3204 46.2259
CA -37.0709 10.0216 46.1568
CA -24.6338 22.7866 70.5765
CA -20.0306 21.0406 59.9881
CA -39.7142 15.5139 41.6722
CA -6.54524 4.69292 50.6342
CA -32.68 -4.59099 60.6256
CA -19.3591 12.0222 80.1146
CA -30.1642 14.1952 16.7649
CA -9.3924 -5.96364 76.7809
CA -1.62879 -15.0902 41.0145
CA -25.7935 20.1422 66.5287
CA -35.9928 -2.61983 65.2794
CA -25.2056 9.59305 46.6804
CA -41.2313 2.17265 38.9179
CA -20.5454 20.7583 74.0715
CA -5.91002 0.927044 68.8896
CA 0.492758 -9.42345 58.4744
CA -17.5902 -4.66313 73.6458
CA -27.3743 24.1223 32.5789
CA -34.452 -8.93952 50.4516
CA -33.0557 12.3347 35.9461
CA -36.2954 14.4528 77.6562
CA -26.7751 17.2689 66.1659
CA -33.9278 -6.08295 50.7845
CA -7.78203 24.2293 24.3248
CA -9.55251 15.8732 66.921
CA -24.0263 0.624856 67.8024
CA -23.0689 14.3555 72.6027
CA 8.05824 -10.201 53.2951
CA -30.4155 16.3318 38.8574
CA -40.4694 9.80241 53.1384
CA -12.7514 16.216 30.0019
CA -19.3291 17.5736 18.2671
CA -18.1026 9.87178 43.6922
CA -30.241 -13.4835 58.9678
CA -41.1005 25.0429 52.7649
CA -38.1407 -6.4724 65.4495
CA -25.3093 -0.975251 59.7521
CA -34.3422 14.2473 71.1009
CA -19.5589 15.8089 82.7652
CA -26.128 -6.90415 65.3037
CA -23.3565 16.7175 62.4765
CA -36.1317 27.2122 60.3062
CA -3.40851 -3.07488 65.5944
CA -27.2849 -1.29009 70.0441
CA -16.1068 -4.39194 46.6188
CA -29.8964 -3.97712 55.0441
CA -3.44938 -18.1646 59.6369
CA -36.9094 14.2093 60.4515
CA -25.801 18.4511 40.4164
CA -32.6953 -7.65739 53.1182
CA -36.7271 5.00789 71.2058
CA -17.531 -8.41775 53.7255
CA -39.9238 17.2203 56.5534
CA -26.2841 6.23853 55.9803
CA -39.8191 33.5158 41.8238
CA -36.9293 31.6124 50.3551
CA -28.167 8.56444 55.1792
CA -21.0135 24.9192 79.9364
CA -30.8635 12.1267 55.7244
CA -31.3814 -3.66054 52.6815
CA -35.2985 20.9311 58.7096
CA -29.2216 -0.506948 59.0977
CA -11.3155 15.9699 45.1712
CA -18.9408 -12.0808 88.8031
CA -36.2938 10.3425 73.8077
CA -37.1434 14.3621 71.6236
