489

CA -33.6561 26.854 70.456
CA -15.458 -1.35152 72.4976
CA -22.7463 23.2038 67.9502
CA -26.2618 19.1008 42.2452
CA -30.3089 13.095 37.8539
CA -20.6263 7.74102 44.2762
CA -31.5574 24.493 63.0026
CA -9.53275 27.6121 82.2719
CA -22.3109 -9.16379 70.8454
CA -19.2796 18.158 64.0576
CA -16.521 25.2199 14.2308
CA -18.5133 11.1575 40.468
CA -39.6077 9.47412 46.8494
CA -27.1125 24.8269 77.8436
CA -26.5696 15.753 81.1043
CA -19.0278 9.0134 65.8756
CA -36.5813 22.8564 58.0774
CA -27.1978 23.1111 69.5149
CA -27.8131 19.035 63.0809
CA -33.1195 4.88387 62.4495
CA -24.7124 -11.8695 57.8664
CA -28.5438 30.4736 67.3141
CA -20.3923 9.93923 43.463
CA -42.4725 8.95873 48.5375
CA -20.1637 18.0087 51.1193
CA -31.5269 -12.5362 50.8899
CA -20.4123 19.7201 27.194
CA -20.6525 27.5716 69.8648
CA -56.9764 4.22718 42.1606
CA -16.709 28.6656 17.6303
CA -2.69778 6.65389 69.1662
CA -22.2162 13.854 45.1058
CA -40.0932 36.404 48.0379
CA -34.6208 5.84467 62.0033
CA -36.9586 35.094 53.2148
CA -32.8873 6.53713 57.4693
CA -43.8394 -9.63291 53.704
CA -33.5518 1.74854 70.9986
CA -18.3335 20.5469 34.3289
CA -34.2266 18.4155 60.4918
CA -16.416 4.44943 74.915
CA -25.7838 -15.3359 46.6971
CA -34.6001 28.3618 44.4733
CA -14.0823 4.4849 69.8937
CA -7.22719 23.7531 64.8898
CA -19.9945 25.5522 36.0416
CA -27.9751 19.2664 18.3083
CA -36.8038 24.3366 55.7448
CA -8.58818 14.4873 19.7656
CA -5.50147 23.1671 23.5885
CA -25.1608 15.066 36.3563
CA -37.9747 22.4189 35.6916
CA -25.2801 16.089 83.9409
CA -6.98997 31.3605 81.086
CA -38.8817 18.3899 47.3001
CA -19.3506 27.8934 68.631
CA -33.8393 10.2667 38.9116
CA -44.6219 7.20139 53.6989
CA -9.37264 28.1982 38.5547
CA -38.5648 9.09987 43.5406
CA -32.3593 -7.7065 69.4461
CA -35.6791 -1.07192 68.4003
CA -39.7604 29.6897 51.9803
CA -27.0374 -17.7231 37.8661
CA -11.143 10.8336 66.1301
CA -19.7819 4.6164 68.8759
CA -40.6536 8.20666 40.8425
CA -24.3834 14.2148 69.8825
CA -35.8798 21.3918 36.981
CA -4.42613 18.363 18.3021
CA -16.1225 6.22422 60.1023
CA -5.01802 -3.80801 65.2473
CA -20.1413 -4.06796 42.8105
CA -34.2178 28.478 53.0369
CA -36.8548 23.2055 42.9612
CA -34.6576 26.3911 64.5539
CA -36.4411 -2.6066 42.4215
CA -13.4035 10.5979 65.9961
CA -40.6075 9.08647 60.5881
CA -39.8422 -5.36344 43.3391
CA -22.8439 -10.4091 44.8083
CA -36.3406 12.1262 58.8473
CA -40.2625 3.70206 53.0348
CA -25.5302 24.0232 60.7371
CA -25.4805 22.4868 74.7074
CA -34.1101 -16.435 40.9697
CA -13.6363 22.0582 14.0111
CA -26.9679 12.2121 66.1044
CA -39.4477 20.2096 36.8299
CA -28.5116 10.0946 72.3941
CA -29.6522 19.5911 16.5502
CA -41.9427 -1.84685 45.9228
CA -5.30272 25.8048 24.0851
CA -31.291 -9.97987 51.2575
CA -12.0255 22.1274 46.1261
CA -27.2219 3.90519 70.9751
CA -14.8856 13.1124 65.6481
CA -16.2353 -5.19667 64.3252
CA -16.7179 6.08724 55.406
CA -31.0467 23.3247 68.562
CA -8.29865 -7.46841 67.6063
CA -24.8853 2.18329 70.7156
CA -38.1745 -2.39818 67.3166
CA -34.0064 3.24847 62.5304
CA 3.17929 -11.4885 55.3343
CA -7.12711 18.6365 34.5286
CA -19.5342 12.2119 46.0892
CA -12.7115 18.7402 36.4952
CA -17.0934 -7.17253 86.9782
CA -37.332 25.9317 52.3323
CA -26.7883 -12.0616 70.6479
CA -35.2256 20.917 61.1811
CA -33.6887 0.203761 48.5066
CA -34.3707 18.4265 72.9017
CA -44.0585 9.16876 52.1666
CA -3.87411 -14.4295 42.8519
CA -21.8508 19.1284 36.0085
CA -18.9743 21.8195 19.8241
CA -33.1392 21.1591 68.756
CA -16.2968 -5.33475 74.8153
CA -22.7181 26.7982 70.6435
CA -40.2145 14.3633 55.0713
CA -20.8448 30.5277 14.7731
CA -6.0601 26.3411 38.3573
CA -22.1213 14.9968 84.0436
CA -37.3093 8.72091 40.6794
CA -38.1745 14.4921 57.1155
CA -16.9985 23.2633 16.5722
CA -24.0768 -14.1857 46.9679
CA -36.9706 18.2573 62.2953
CA -16.5778 1.49983 74.0734
CA -29.4049 12.9604 78.5707
CA -41.5857 12.7646 51.3854
CA -32.6252 29.5497 44.4923
CA -11.4153 25.8353 13.0168
CA -28.7266 -12.5989 45.2433
CA -15.239 -7.53199 64.9907
CA -27.676 -6.38286 59.4561
CA 0.603374 -15.0678 65.0451
CA -30.0228 17.2487 77.2022
CA -11.1982 3.77019 58.9808
CA -35.9693 7.47348 62.2625
CA -39.0677 -12.2276 49.9212
CA -14.9331 18.5289 32.5308
CA -16.197 3.17476 59.33
CA -36.0847 36.5405 51.0075
CA -5.09497 13.9881 68.6571
CA -7.22592 -4.10718 66.2891
CA -13.1339 15.4008 21.0365
CA -32.689 -17.4869 44.0692
CA -4.18582 -5.92427 65.6218
CA -46.4249 -4.42126 41.2196
CA -39.0626 33.4375 44.0845
CA -35.2006 27.8659 47.6716
CA -32.7746 32.2162 67.8421
CA -14.3952 15.8106 70.4918
CA -27.1485 -8.63425 53.4546
CA -18.7131 -12.9197 53.4782
CA -10.5455 -7.28508 74.1055
CA -43.6043 17.1211 53.3365
CA -8.37254 20.1636 20.7531
CA -17.2917 26.0562 77.5456
CA -32.3041 0.870587 68.3523
CA -36.6426 3.56578 68.3127
CA -22.3636 25.8624 68.7711
CA -10.271 24.4315 37.1445
CA -35.8874 8.49744 46.9491
CA -29.4302 25.0509 65.6243
CA -29.5773 17.8953 14.1169
CA -10.2699 22.7214 44.6505
CA -24.0632 -12.6772 68.8935
CA -18.6882 -3.20416 79.2016
CA -8.03374 24.6982 41.3562
CA -18.8597 -8.80225 69.3014
CA -16.4744 29.2552 80.5821
CA -21.4812 19.291 29.7788
CA -17.7902 20.7052 23.7834
CA -20.206 -2.31484 45.3213
CA -32.7301 17.7682 39.7409
CA -19.1968 25.2121 68.9004
CA -31.828 23.4659 41.6225
CA -29.6594 15.5463 57.9908
CA -13.4067 9.63763 62.0321
CA -26.2394 21.1783 15.1329
CA -33.6755 5.83913 38.9325
CA -9.71969 27.0781 15.6228
CA -19.1473 17.6201 81.2797
CA -20.3582 22.5442 35.8778
CA -29.2141 32.1302 59.5476
CA -3.88522 11.0145 70.3192
CA -36.2231 33.7054 52.034
CA -37.905 11.2703 57.3751
CA -13.4256 7.70057 67.6971
CA -34.0532 21.407 77.0129
CA -41.7112 -3.37528 39.9362
CA -37.4196 32.2552 42.973
CA -37.9494 -10.1353 50.1553
CA -34.0331 12.9943 55.3968
CA -29.2411 24.8802 15.4065
CA -17.5616 3.66791 53.7231
CA -13.8683 -8.22207 66.3204
CA -21.507 -6.03708 62.7711
CA -30.5089 34.3961 45.4367
CA -46.0323 2.31756 36.2317
CA -33.894 27.4626 68.1088
CA -29.7361 33.8528 67.4193
CA -25.1501 -11.6417 67.3275
CA -12.7196 11.3838 42.1799
CA -18.6525 -10.156 53.9112
CA -29.5813 22.4706 65.8316
CA -29.3801 28.1316 60.3461
CA -39.2879 8.52481 50.2965
CA 5.88104 -8.40255 37.8856
CA -14.5349 -15.3934 54.3531
CA -26.4003 32.0878 59.1863
CA -31.2493 18.9117 74.6105
CA -34.3021 -7.60524 61.0448
CA -14.9573 26.9715 13.99
CA -12.5995 5.6606 59.5965
CA -23.8421 22.7986 18.061
CA -16.7009 14.2039 47.7242
CA -19.8842 5.72458 52.6538
CA -37.5333 -10.2766 60.4196
CA -19.2697 -3.96513 89.4663
CA -24.8424 20.9789 63.5963
CA -17.0335 17.0781 75.4417
CA -10.1267 14.4453 47.2934
CA -19.2414 19.2661 25.4396
CA -38.8719 -8.50043 60.9682
CA -6.33837 26.8545 26.4419
CA -24.5985 -6.00065 70.0465
CA -4.3598 -18.69 55.263
CA -49.5323 2.92338 36.443
CA -44.8605 5.09001 36.1455
CA -37.5746 39.413 50.1682
CA -17.4211 -12.5465 85.2634
CA -9.87574 24.3873 27.0872
CA -33.3442 -1.85415 51.0231
CA -35.2909 23.3155 75.1144
CA -39.6479 30.3492 60.6064
CA -38.355 9.97671 52.1731
CA -31.797 26.4409 70.3976
CA -16.6551 5.86794 44.889
CA -21.9468 14.3654 79.8053
CA -10.0121 18.4593 15.5383
CA -32.5627 18.9608 72.7447
CA -22.8653 18.3947 61.4022
CA -26.5857 23.4634 62.93
CA -35.8255 2.78706 71.7732
CA -45.4372 7.63083 52.0527
CA -29.9653 -0.437881 66.3754
CA -36.5965 24.7062 60.311
CA -20.6567 21.0267 24.1392
CA -24.1995 10.6237 47.8703
CA 0.905033 -11.1468 55.4576
CA -36.53 34.0415 60.275
CA -6.46073 20.1171 63.7989
CA -24.7901 1.706 59.658
CA -17.8089 -6.64238 62.1654
CA -8.43255 19.5087 64.5464
CA -40.2092 -6.99101 54.7663
CA -31.6434 -4.88652 57.6243
CA -5.97406 4.94325 53.1812
CA -2.45354 26.3297 25.1874
CA -32.3151 14.1014 76.5145
CA -29.746 4.19453 57.2657
CA -9.55936 1.35173 65.9658
CA -35.5419 1.58852 49.8375
CA -22.2458 -5.22145 73.1811
CA -52.0079 -0.960161 39.4376
CA -24.5941 16.8978 63.7954
CA -19.1761 -4.17022 74.7759
CA -16.7099 -9.63656 46.8033
CA -36.4838 21.897 71.3279
CA -18.5328 27.9875 16.8873
CA -12.662 3.97101 52.4351
CA -32.8026 27.4763 60.924
CA -10.4535 18.7487 30.5484
CA -14.6943 18.8835 38.0875
CA -38.106 7.20449 62.2523
CA -36.3629 12.4009 56.8406
CA -13.9062 -8.0025 46.148
CA 2.82198 -4.39871 47.5376
CA -24.8037 -6.75712 56.5318
CA -13.3751 1.95646 71.8893
CA -27.2401 27.6632 35.6479
CA 0.834724 -6.78983 65.6146
CA -43.4639 -7.70513 51.6141
CA -24.9976 -16.6976 42.1614
CA -16.7697 14.9491 18.6323
CA -32.9445 -3.21195 57.0996
CA -13.4036 7.6238 50.2046
CA -15.2261 9.29934 79.7833
CA -27.0196 25.4598 64.1446
CA -46.6701 3.57518 52.3082
CA -29.1486 25.1316 40.7495
CA -9.72556 -9.69983 75.1051
CA -33.4659 26.713 43.8205
CA -24.0279 -16.2955 45.5715
CA -37.2484 23.7446 53.3606
CA -17.547 22.8619 14.328
CA -7.54875 28.4149 24.8076
CA -17.4316 0.791887 54.6879
CA -4.12449 26.4053 16.5475
CA -17.6752 20.6741 36.9274
CA -31.3811 8.52737 56.0687
CA -20.8866 -1.65438 78.4774
CA -4.29125 26.8692 36.3393
CA -3.49398 -12.9311 59.2084
CA -21.5393 21.5448 79.022
CA -17.666 15.9445 69.7128
CA -9.55766 -9.36227 72.3256
CA -32.8819 13.9558 47.7399
CA -19.1979 3.41936 75.5074
CA -10.9974 18.8367 24.736
CA -20.537 13.0777 51.9261
CA -27.1532 28.1765 59.9994
CA -32.3216 20.6636 63.9316
CA 4.64096 -7.45494 44.123
CA 5.80695 -7.36846 50.9501
CA -32.2298 -7.5348 51.1246
CA -20.3154 -13.48 57.4392
CA -16.7203 25.2146 16.7497
CA -35.8443 -5.9841 71.0096
CA -31.9746 27.8982 66.1441
CA -7.83093 27.9405 16.3967
CA -5.71637 25.1307 25.7472
CA -33.8849 13.8372 74.1423
CA -32.7596 14.6461 72.8523
CA -35.4666 22.065 64.5946
CA -22.8872 12.3763 55.0076
CA -20.424 -1.72082 81.6477
CA -25.6543 7.47407 49.6589
CA -35.8071 -0.349464 70.7497
CA -50.1452 0.745114 44.6452
CA -40.7234 -1.92499 72.6171
CA -11.8019 -8.21371 79.7198
CA -15.3719 20.2808 71.1838
CA -7.05805 26.4531 23.1944
CA -43.9644 14.7772 54.3861
CA -7.49303 1.67372 52.8085
CA 5.84995 -9.75506 41.1927
CA -56.0049 0.600215 39.1381
CA -15.5655 13.7103 72.7461
CA -25.2624 28.454 42.0352
CA -17.1475 22.2639 24.5809
CA -31.4056 17.0237 74.0543
CA -28.0177 15.0992 63.2148
CA 1.07108 28.0223 21.398
CA -34.8468 16.4946 64.4836
CA -16.3764 -4.05036 72.4287
CA -21.5858 15.2773 19.1454
CA -18.2129 12.6394 65.6977
CA -23.724 -18.4251 66.2158
CA -33.5161 23.8277 33.6896
CA -34.9872 7.75399 39.4298
CA -39.155 10.9347 55.2215
CA -47.0442 9.86953 49.8685
CA 4.56372 -4.66088 49.2759
CA -23.7646 9.56201 52.0835
CA -13.6525 14.4783 67.4639
CA 1.87013 -4.82679 50.0018
CA -36.878 29.5284 62.5495
CA -20.3745 21.0947 62.4028
CA -18.0349 -9.92315 50.0923
CA -18.9973 7.75178 35.9854
CA -22.2396 11.2881 53.2667
CA -21.6482 17.0017 46.5302
CA -24.648 0.413287 70.9756
CA -22.912 17.7916 18.9007
CA -30.1255 0.930646 72.2939
CA -33.4924 37.1244 51.1477
CA -10.3549 20.6949 20.1875
CA -37.4106 23.3212 75.2351
CA -19.1596 15.614 77.6256
CA -35.7564 -7.98837 62.0572
CA -21.6576 8.96418 56.8914
CA -34.2195 23.693 60.2175
CA -30.0628 1.56082 69.1516
CA -28.6183 -13.9166 47.0379
CA -19.4711 -9.5363 39.2644
CA -34.8517 19.503 36.1333
CA -36.7784 9.79212 63.5466
CA -36.2979 -7.8953 67.1862
CA -3.39507 -14.414 60.5393
CA -34.2536 11.7038 69.5481
CA -31.307 20.2676 69.6995
CA -6.89315 -1.00423 65.0541
CA -26.2011 14.0471 74.7004
CA -3.59441 17.9778 72.5853
CA -22.2073 -10.8284 69.1649
CA -32.4994 18.499 70.9698
CA 4.10162 -5.22076 52.48
CA -18.8301 23.4756 36.296
CA -35.2872 32.2234 48.9215
CA -28.2907 20.0143 73.5338
CA -12.9997 27.9711 21.6995
CA -16.0772 -6.59026 82.8222
CA -36.3782 6.73715 48.2152
CA -2.97122 28.607 17.6112
CA -36.4091 -11.0235 49.376
CA -23.0558 -12.3619 65.9512
CA -29.9992 -16.9453 45.7688
CA -13.028 10.3112 57.2251
CA -13.4572 30.0373 79.2745
CA -26.5131 30.2172 37.7472
CA -39.7489 13.23 51.5082
CA -19.6847 27.8096 35.6772
CA -15.1376 4.76906 52.241
CA -24.6192 -16.1196 66.1161
CA -43.4938 8.42331 55.3845
CA -20.605 -17.545 43.0725
CA 3.21115 -14.3021 39.8419
CA -45.8368 -0.169988 37.5248
CA -37.1016 27.7912 42.99
CA -25.6836 -10.1404 69.9397
CA -27.7903 30.1567 39.4235
CA -17.869 3.85122 78.1269
CA -19.5095 -11.2816 41.323
CA -33.138 22.8713 43.7662
CA -17.9113 13.3724 68.4038
CA -36.4049 -1.56585 43.9765
CA -37.0709 10.0216 46.1568
CA -24.6338 22.7866 70.5765
CA -20.0306 21.0406 59.9881
CA -5.0974 22.2376 34.9672
CA -6.54524 4.69292 50.6342
CA -32.68 -4.59099 60.6256
CA -19.3591 12.0222 80.1146
CA -26.6532 -18.417 46.8492
CA -33.8857 18.4106 63.2779
CA -1.62879 -15.0902 41.0145
CA -25.7935 20.1422 66.5287
CA -18.465 -1.58642 53.8397
CA -30.8034 18.3978 40.496
CA -0.897669 -15.2589 61.7577
CA -14.0156 21.4587 34.7278
CA -5.91002 0.927044 68.8896
CA 0.492758 -9.42345 58.4744
CA -20.6626 15.6751 22.4683
CA -53.138 -0.324858 45.1719
CA -36.2651 7.832 51.605
CA -33.0557 12.3347 35.9461
CA -21.9713 18.7307 20.9973
CA -4.71884 16.6613 16.6595
CA -38.1231 16.9202 53.898
CA -7.78203 24.2293 24.3248
CA -9.55251 15.8732 66.921
CA -17.9715 15.5935 80.3793
CA -23.0689 14.3555 72.6027
CA 8.05824 -10.201 53.2951
CA -6.38767 -2.29783 63.3473
CA -40.4694 9.80241 53.1384
CA -34.0772 20.9465 36.9731
CA -33.2575 17.773 46.3801
CA -18.1026 9.87178 43.6922
CA -26.3303 16.1791 63.0502
CA -39.7228 -11.5115 53.8349
CA -38.1407 -6.4724 65.4495
CA -14.5019 29.5356 15.2778
CA -4.71056 7.36878 52.3945
CA -10.7437 9.9524 43.8811
CA -16.2629 22.7684 74.8698
CA -23.3565 16.7175 62.4765
CA -31.1233 5.76303 73.1365
CA -3.40851 -3.07488 65.5944
CA -29.032 27.6487 37.7661
CA -16.1068 -4.39194 46.6188
CA -29.8964 -3.97712 55.0441
CA -3.44938 -18.1646 59.6369
CA -0.861832 7.62336 65.3366
CA -19.9064 19.1595 61.9686
CA -32.6953 -7.65739 53.1182
CA -29.6288 27.7368 39.6554
CA 1.37886 -10.3931 65.0951
CA -39.9238 17.2203 56.5534
CA -26.4362 25.4333 68.4766
CA -31.7835 0.349917 49.0838
CA -37.1888 17.1359 49.5659
CA -28.167 8.56444 55.1792
CA -21.0135 24.9192 79.9364
CA -30.8635 12.1267 55.7244
CA -14.2243 27.1901 16.8187
CA -17.2944 2.20373 56.6437
CA -29.2216 -0.506948 59.0977
CA -32.7657 -10.4058 52.399
CA -18.9408 -12.0808 88.8031
CA -19.7534 15.9044 48.0839
CA -5.67017 20.2842 33.3967
