489

CA -15.2437 32.0703 83.2104
CA -15.458 -1.35152 72.4976
CA -9.69596 27.0886 48.1406
CA -14.8382 10.056 45.3453
CA -30.3089 13.095 37.8539
CA -16.6349 -3.9992 61.3119
CA -38.2131 23.1038 45.7295
CA -9.53275 27.6121 82.2719
CA -22.3109 -9.16379 70.8454
CA -38.7985 24.9469 46.1542
CA -13.4867 11.9658 70.8158
CA -7.74696 -7.61337 75.683
CA -39.6077 9.47412 46.8494
CA -27.1125 24.8269 77.8436
CA -26.5696 15.753 81.1043
CA -23.1096 16.3684 73.8754
CA -36.5813 22.8564 58.0774
CA -30.3355 29.3823 66.559
CA -54.7589 -3.19164 42.3749
CA -45.0627 -0.564401 39.1757
CA -37.0273 25.6013 70.7098
CA -8.24907 32.9362 14.0525
CA -20.3923 9.93923 43.463
CA -42.4725 8.95873 48.5375
CA -24.5906 19.2587 40.9282
CA -31.5269 -12.5362 50.8899
CA -36.1781 8.05026 64.7708
CA -25.7323 7.08887 49.2992
CA -23.9194 14.9546 65.6831
CA -16.709 28.6656 17.6303
CA -34.523 21.5011 55.3394
CA -17.5204 9.73576 61.5205
CA -13.3928 0.0700757 45.2435
CA -34.6208 5.84467 62.0033
CA -36.9586 35.094 53.2148
CA -32.7523 3.16321 70.7928
CA -12.8141 12.8275 67.2736
CA -15.8692 20.5717 44.4935
CA -18.3335 20.5469 34.3289
CA -36.31 -7.88052 69.9624
CA -12.5933 12.8163 57.6841
CA -25.7838 -15.3359 46.6971
CA -11.4652 -5.96664 70.7946
CA -18.0451 13.0667 44.189
CA -38.7547 27.543 62.6444
CA -19.9945 25.5522 36.0416
CA -24.7866 24.3318 68.3133
CA -36.8038 24.3366 55.7448
CA -8.58818 14.4873 19.7656
CA -25.4779 27.2454 68.2329
CA -25.1608 15.066 36.3563
CA -37.9747 22.4189 35.6916
CA -18.8505 -3.98881 45.954
CA -6.98997 31.3605 81.086
CA -38.8817 18.3899 47.3001
CA -52.7086 -3.45071 41.4885
CA -16.7904 5.86435 72.2926
CA -25.2465 13.2376 81.4632
CA -9.37264 28.1982 38.5547
CA -33.6832 16.8248 52.5301
CA -13.7553 20.7877 38.3686
CA -21.0922 18.2916 43.8185
CA -15.6389 19.1152 47.1179
CA -35.6224 25.0721 53.7398
CA -5.07535 26.0963 27.4668
CA -19.7819 4.6164 68.8759
CA -17.7984 17.0604 19.6708
CA -24.3834 14.2148 69.8825
CA -35.8798 21.3918 36.981
CA -17.6574 -2.03581 73.6046
CA -16.1225 6.22422 60.1023
CA -18.2476 -2.0222 49.8205
CA -20.1413 -4.06796 42.8105
CA -34.2178 28.478 53.0369
CA -36.8548 23.2055 42.9612
CA -34.6576 26.3911 64.5539
CA -19.1461 15.3174 52.4163
CA -13.4035 10.5979 65.9961
CA -33.9765 24.0971 37.2851
CA -39.8422 -5.36344 43.3391
CA -22.8439 -10.4091 44.8083
CA -15.6779 -3.99331 72.2966
CA -40.2625 3.70206 53.0348
CA -25.5302 24.0232 60.7371
CA -25.4805 22.4868 74.7074
CA -11.6058 10.5337 61.5829
CA -40.1561 21.0905 55.4761
CA -36.7893 20.3729 55.9661
CA -46.6073 8.31085 38.1401
CA -13.4014 3.33591 45.634
CA -29.6522 19.5911 16.5502
CA -41.9427 -1.84685 45.9228
CA -17.7678 0.506527 72.6676
CA -24.5007 9.61197 58.4502
CA -16.062 -5.66795 90.6486
CA -33.5044 10.2663 40.1175
CA -36.5338 -9.0517 48.9399
CA -34.076 22.9868 70.2605
CA -16.7179 6.08724 55.406
CA -26.9512 -7.9209 45.7296
CA -8.29865 -7.46841 67.6063
CA -13.1123 16.7118 62.1218
CA -23.1281 21.6513 68.5552
CA -35.2041 20.2783 72.0453
CA -21.698 -12.511 83.0141
CA -7.12711 18.6365 34.5286
CA -19.5342 12.2119 46.0892
CA -12.7115 18.7402 36.4952
CA -17.0934 -7.17253 86.9782
CA -4.82392 0.611351 63.7019
CA -21.6789 -8.7492 68.2633
CA -24.859 27.8109 37.6051
CA -33.6887 0.203761 48.5066
CA -29.7837 29.3351 71.61
CA -37.3129 27.9177 37.7385
CA -3.87411 -14.4295 42.8519
CA -21.8508 19.1284 36.0085
CA -25.5966 17.2153 34.5572
CA -27.9979 10.7136 55.5147
CA -16.2968 -5.33475 74.8153
CA -29.6397 -10.4532 41.854
CA -14.4228 23.4998 33.2519
CA -0.263206 -11.9594 66.1233
CA -36.3087 -3.00452 47.7063
CA -23.7817 27.5497 35.8725
CA -26.9916 -8.06549 68.4352
CA -38.1745 14.4921 57.1155
CA -22.5548 -0.15647 43.9505
CA -29.6182 -6.92937 57.7631
CA -36.9706 18.2573 62.2953
CA -16.5778 1.49983 74.0734
CA -29.4049 12.9604 78.5707
CA -10.8955 12.3306 20.3777
CA -32.6252 29.5497 44.4923
CA -11.4153 25.8353 13.0168
CA -15.4643 -5.77274 44.2813
CA -30.2418 22.7307 77.1311
CA -27.676 -6.38286 59.4561
CA -37.9946 -0.877647 50.6333
CA -11.0452 9.3975 21.5996
CA -40.7378 11.8386 58.5513
CA -13.6129 21.0611 46.5027
CA -12.759 -7.41649 75.3775
CA -14.9331 18.5289 32.5308
CA -47.4343 7.48429 50.6447
CA -20.3272 9.05452 68.0925
CA -5.09497 13.9881 68.6571
CA -11.0602 30.6587 35.4872
CA -13.1339 15.4008 21.0365
CA -32.689 -17.4869 44.0692
CA -4.18582 -5.92427 65.6218
CA -46.4249 -4.42126 41.2196
CA -39.0626 33.4375 44.0845
CA -12.0288 14.2365 54.9859
CA 5.97531 -3.97947 41.4878
CA -14.3952 15.8106 70.4918
CA 0.507473 -13.503 45.3494
CA -18.7131 -12.9197 53.4782
CA -33.3786 -1.63728 67.3863
CA -18.643 4.09079 72.0626
CA -35.497 -11.7783 59.2834
CA -17.2917 26.0562 77.5456
CA -32.3041 0.870587 68.3523
CA -37.9885 -3.02801 40.2744
CA 8.60155 -9.1996 41.2093
CA -28.5402 32.6725 67.7669
CA -12.375 -0.256055 53.0956
CA -4.49158 17.0374 69.4304
CA -28.8085 16.965 83.1837
CA -10.2699 22.7214 44.6505
CA -38.093 -6.90202 43.6771
CA -18.6882 -3.20416 79.2016
CA -8.03374 24.6982 41.3562
CA -12.3991 17.4723 19.4221
CA -16.4744 29.2552 80.5821
CA -24.3283 -14.5952 59.7319
CA -20.0861 31.918 82.4163
CA -20.206 -2.31484 45.3213
CA -33.8577 -15.4517 49.3589
CA -19.1968 25.2121 68.9004
CA -39.6004 -7.34013 52.9311
CA -14.5539 7.19948 44.7619
CA -6.12484 22.3574 23.9528
CA -26.2394 21.1783 15.1329
CA -15.9151 15.4476 63.2262
CA -9.71969 27.0781 15.6228
CA -19.1473 17.6201 81.2797
CA -33.5617 -6.16556 59.3383
CA -8.85856 -2.33708 61.5892
CA -28.9314 14.6904 38.9887
CA -36.2231 33.7054 52.034
CA -37.905 11.2703 57.3751
CA -0.572537 -12.1784 64.0104
CA -29.9145 7.84429 51.841
CA -41.7112 -3.37528 39.9362
CA -37.4196 32.2552 42.973
CA -11.4055 4.29763 55.9377
CA -34.0331 12.9943 55.3968
CA -19.229 -6.15965 48.7994
CA -7.44257 -4.62094 67.2079
CA -20.3411 -10.1696 53.9345
CA -30.7643 -12.6511 43.6357
CA 6.66001 -8.87888 56.8884
CA -14.0036 8.25297 63.1144
CA -33.894 27.4626 68.1088
CA -36.3251 25.524 68.8342
CA -29.5982 16.468 56.533
CA -12.7196 11.3838 42.1799
CA -20.6077 -3.89326 81.1919
CA -25.5772 -0.830228 72.645
CA -31.1049 19.4606 83.4972
CA -9.28751 15.5961 18.2552
CA 5.88104 -8.40255 37.8856
CA -14.5349 -15.3934 54.3531
CA -30.2454 28.9053 34.657
CA -38.0498 37.1768 53.3819
CA -34.3021 -7.60524 61.0448
CA -46.1883 4.37974 35.1894
CA -26.9883 -5.76755 57.6479
CA -23.8421 22.7986 18.061
CA -26.0026 -12.174 46.0743
CA -36.1145 -7.28382 55.242
CA -37.5333 -10.2766 60.4196
CA -19.2697 -3.96513 89.4663
CA -24.8424 20.9789 63.5963
CA -30.0842 15.6937 69.9697
CA -10.1267 14.4453 47.2934
CA -30.713 -5.31439 64.21
CA -37.2722 20.9402 61.0178
CA -26.1236 -9.63456 70.1309
CA -32.6938 -7.1979 71.6515
CA -4.3598 -18.69 55.263
CA -49.5323 2.92338 36.443
CA -5.96891 19.4471 18.7284
CA -6.18779 17.9787 36.8017
CA -17.4211 -12.5465 85.2634
CA -9.87574 24.3873 27.0872
CA -29.4397 -2.92594 55.1761
CA -35.2909 23.3155 75.1144
CA -39.6479 30.3492 60.6064
CA -38.355 9.97671 52.1731
CA -24.9744 8.95055 62.7964
CA -16.6551 5.86794 44.889
CA -21.9468 14.3654 79.8053
CA -10.0121 18.4593 15.5383
CA -31.5885 15.234 54.1285
CA -15.7578 9.7318 66.4967
CA -26.5857 23.4634 62.93
CA -35.8255 2.78706 71.7732
CA -17.2717 31.1172 18.566
CA -14.6802 19.2966 40.1722
CA -31.337 20.4814 71.628
CA -20.6567 21.0267 24.1392
CA -24.1995 10.6237 47.8703
CA 0.905033 -11.1468 55.4576
CA -36.53 34.0415 60.275
CA -6.46073 20.1171 63.7989
CA -9.19545 9.3791 41.3657
CA -19.3872 -5.22918 80.0189
CA -8.43255 19.5087 64.5464
CA -5.27944 15.4816 17.0953
CA -10.2064 -7.17541 74.8296
CA -26.8955 15.0346 76.3519
CA -2.45354 26.3297 25.1874
CA -34.8994 6.89885 55.4349
CA -29.746 4.19453 57.2657
CA -29.1045 27.1187 67.3041
CA -11.3212 29.9715 15.8491
CA -29.9824 22.9324 73.4707
CA -52.0079 -0.960161 39.4376
CA -36.0178 8.47614 57.8521
CA -37.7236 -6.75259 45.7778
CA 0.776323 -13.9312 68.8571
CA -36.4838 21.897 71.3279
CA -18.5328 27.9875 16.8873
CA -12.662 3.97101 52.4351
CA -16.0775 4.54017 54.4971
CA -10.4535 18.7487 30.5484
CA -33.2417 30.5743 65.9895
CA -20.2389 -1.70457 50.1668
CA -36.3629 12.4009 56.8406
CA -13.9062 -8.0025 46.148
CA 2.82198 -4.39871 47.5376
CA -24.8037 -6.75712 56.5318
CA -13.3751 1.95646 71.8893
CA -33.8171 17.8382 36.2504
CA -31.8195 3.8429 64.4554
CA -43.4639 -7.70513 51.6141
CA -24.9976 -16.6976 42.1614
CA -16.7697 14.9491 18.6323
CA -32.9445 -3.21195 57.0996
CA -35.3357 15.1869 71.3231
CA -36.3431 1.36444 51.4949
CA -22.0828 14.1714 74.8028
CA -26.6329 23.8181 69.5496
CA -10.3086 22.4591 68.7511
CA -9.72556 -9.69983 75.1051
CA -21.7169 5.97095 42.9587
CA -9.66569 12.7449 26.6293
CA -22.3738 -14.3802 58.5759
CA -17.547 22.8619 14.328
CA -37.8301 34.6775 40.5082
CA -22.9826 19.9984 44.3663
CA -11.0702 17.9251 61.0697
CA -17.6752 20.6741 36.9274
CA -19.4132 22.7533 70.487
CA -26.0583 -15.8014 85.3054
CA -36.6826 -7.19176 50.5497
CA -19.3746 7.61647 58.0841
CA -21.5393 21.5448 79.022
CA -24.3599 16.4418 82.427
CA -21.2039 -10.7573 68.5188
CA -5.15285 -12.3021 65.7293
CA -17.3001 33.6349 82.3336
CA -10.9974 18.8367 24.736
CA -20.537 13.0777 51.9261
CA -30.9232 -4.72697 60.7665
CA -24.4512 19.4521 42.7256
CA 4.64096 -7.45494 44.123
CA 5.80695 -7.36846 50.9501
CA -32.2298 -7.5348 51.1246
CA -20.3154 -13.48 57.4392
CA -16.7203 25.2146 16.7497
CA -35.8443 -5.9841 71.0096
CA -16.2112 8.32051 48.3736
CA -31.3584 -8.76057 45.422
CA -17.6272 0.452168 78.6039
CA -18.6354 -4.86387 85.4197
CA -32.7596 14.6461 72.8523
CA -28.7885 8.99614 70.2116
CA -25.0896 17.1423 64.469
CA -32.4565 14.9204 76.5609
CA -46.1477 -2.30261 38.556
CA -35.8071 -0.349464 70.7497
CA -50.1452 0.745114 44.6452
CA -0.702402 -8.46533 62.4904
CA -11.8019 -8.21371 79.7198
CA -11.9613 15.3253 33.9115
CA -42.8891 14.7714 56.2859
CA -18.0605 19.5383 25.5764
CA -7.49303 1.67372 52.8085
CA 5.84995 -9.75506 41.1927
CA -21.3953 0.723825 71.8586
CA -14.8963 7.10894 64.3302
CA -43.0249 10.7592 48.5874
CA -24.9854 -10.289 62.7958
CA -11.5089 24.9055 30.3583
CA -25.4773 21.2356 60.3892
CA 1.07108 28.0223 21.398
CA -29.0364 27.1358 63.821
CA -33.6283 28.0793 47.5649
CA -21.5858 15.2773 19.1454
CA -10.3103 13.6746 24.877
CA -41.2222 -9.72602 55.8211
CA -22.7525 -8.16717 56.9557
CA -16.7005 6.33939 51.0491
CA -39.155 10.9347 55.2215
CA -10.6208 13.6837 21.7703
CA -29.6064 20.1736 86.7626
CA -21.0159 19.6378 19.2155
CA -13.6525 14.4783 67.4639
CA 1.87013 -4.82679 50.0018
CA -20.4913 -8.1618 45.6039
CA -20.3745 21.0947 62.4028
CA -18.0349 -9.92315 50.0923
CA -11.6454 23.0607 48.171
CA -22.2396 11.2881 53.2667
CA -21.6482 17.0017 46.5302
CA -30.0754 27.1499 42.1258
CA -22.912 17.7916 18.9007
CA -27.2655 24.4283 60.2391
CA -36.7381 -2.17426 55.9981
CA -10.3549 20.6949 20.1875
CA -37.4106 23.3212 75.2351
CA -19.1596 15.614 77.6256
CA -32.3686 6.11401 62.491
CA -20.3308 -4.48909 64.5735
CA -28.6047 24.0032 38.7851
CA -30.0628 1.56082 69.1516
CA -19.9824 0.599139 54.1196
CA -32.8347 15.7791 56.6164
CA -6.8906 20.8282 19.7297
CA -36.7784 9.79212 63.5466
CA -36.2979 -7.8953 67.1862
CA -3.39507 -14.414 60.5393
CA -33.1559 5.04994 63.7844
CA -31.307 20.2676 69.6995
CA -30.4229 13.9296 55.1819
CA -32.5122 1.66916 57.0196
CA -13.7407 26.5808 15.1767
CA -19.2233 7.13975 54.2782
CA -32.4994 18.499 70.9698
CA -29.9734 -18.4731 48.9239
CA -43.61 7.24798 49.4282
CA -39.2813 35.9931 46.2028
CA -45.4132 -8.14471 53.6648
CA -21.6672 -3.0386 55.1171
CA -16.0772 -6.59026 82.8222
CA -31.1325 -9.47267 48.9389
CA -22.6914 12.754 45.7128
CA -38.8359 21.3526 57.2678
CA -23.0558 -12.3619 65.9512
CA -29.9992 -16.9453 45.7688
CA -21.7574 19.6842 46.4575
CA -13.4572 30.0373 79.2745
CA -3.63027 20.2959 18.3484
CA -30.7717 3.83389 59.5899
CA -22.7052 -16.2504 85.1824
CA -35.3865 13.9514 52.4886
CA -16.2025 30.3197 83.6865
CA -4.15436 -1.93705 63.7981
CA -19.3489 13.896 70.9739
CA 3.21115 -14.3021 39.8419
CA -45.8368 -0.169988 37.5248
CA -20.0619 21.0228 29.3053
CA -9.38694 12.9872 23.2408
CA -27.7903 30.1567 39.4235
CA -26.631 12.1487 37.7805
CA -19.5095 -11.2816 41.323
CA -33.138 22.8713 43.7662
CA -17.9113 13.3724 68.4038
CA -18.9489 23.7379 15.3445
CA -28.0874 0.0724774 73.6298
CA -15.7641 2.36278 76.1059
CA -20.0306 21.0406 59.9881
CA -24.5462 -13.1988 42.936
CA 3.86943 -6.28403 38.4155
CA -36.0475 9.97246 56.8516
CA -29.3445 -3.88889 65.0838
CA -14.5228 6.57811 70.2562
CA 2.39573 -11.3457 51.1624
CA -1.62879 -15.0902 41.0145
CA -31.9739 25.7483 68.4231
CA -23.0077 30.9325 16.8482
CA -17.1394 -10.7557 68.2905
CA -30.9471 -18.8572 41.0095
CA -47.5431 6.97667 42.2107
CA -37.5689 1.71658 54.7991
CA 0.492758 -9.42345 58.4744
CA -18.208 17.8776 17.9381
CA -53.138 -0.324858 45.1719
CA -29.6809 18.1969 55.2704
CA -34.6072 -1.29654 69.023
CA -30.0466 -3.32304 68.8101
CA -31.1789 6.75036 63.6839
CA -34.4163 6.54909 64.4438
CA -34.4012 -7.54981 50.8168
CA -9.55251 15.8732 66.921
CA -6.65834 -19.991 53.0101
CA -23.0689 14.3555 72.6027
CA 8.05824 -10.201 53.2951
CA -6.38767 -2.29783 63.3473
CA -40.4694 9.80241 53.1384
CA -28.5882 1.64053 62.684
CA -5.86195 17.2875 34.7415
CA -0.344359 -6.37748 51.0402
CA -47.1378 -7.33594 41.1201
CA -39.7228 -11.5115 53.8349
CA -38.1407 -6.4724 65.4495
CA -14.5019 29.5356 15.2778
CA -23.0653 13.0382 67.9645
CA -10.7437 9.9524 43.8811
CA -16.2629 22.7684 74.8698
CA -32.6701 5.73072 68.3939
CA -31.1233 5.76303 73.1365
CA -3.40851 -3.07488 65.5944
CA -29.032 27.6487 37.7661
CA -17.7627 8.48864 65.5933
CA -23.8073 -17.1896 48.054
CA -3.44938 -18.1646 59.6369
CA -21.8609 23.2538 70.7772
CA -25.9807 12.4432 70.2558
CA -33.4933 24.2729 66.4763
CA -0.766984 -12.7942 62.0665
CA 1.37886 -10.3931 65.0951
CA -39.9238 17.2203 56.5534
CA -23.0767 14.4099 52.5958
CA -41.3579 31.2297 43.5962
CA -33.8262 28.0427 50.2288
CA -28.167 8.56444 55.1792
CA -16.5922 4.5493 47.4182
CA -30.8635 12.1267 55.7244
CA -16.619 6.41175 57.9291
CA -17.2944 2.20373 56.6437
CA -35.4854 25.027 57.0521
CA -28.0275 17.1975 60.5321
CA -16.7406 18.8789 45.2903
CA -16.4137 8.59392 59.3539
CA -20.0915 -9.15534 84.5115
