489

CA -33.5538 25.215 54.9818
CA -22.8593 18.7845 35.5371
CA -40.6168 14.2556 44.0698
CA -14.8382 10.056 45.3453
CA -23.4619 -13.812 56.4226
CA -16.6349 -3.9992 61.3119
CA -38.2131 23.1038 45.7295
CA -9.53275 27.6121 82.2719
CA -32.5045 25.5753 43.7287
CA -38.7985 24.9469 46.1542
CA -45.9195 5.74202 53.1609
CA -7.74696 -7.61337 75.683
CA -39.6077 9.47412 46.8494
CA -13.492 20.3707 31.8881
CA -29.0426 12.2539 41.1177
CA -23.1096 16.3684 73.8754
CA -36.5813 22.8564 58.0774
CA -38.2679 7.84632 57.8488
CA -19.1909 -2.38152 72.0743
CA -45.4777 -1.53446 43.9716
CA -16.7589 11.4676 61.4324
CA -31.2305 -5.02791 71.0334
CA -1.35696 -7.79715 70.9121
CA -17.3294 11.225 51.4601
CA -32.907 15.2675 59.0692
CA -20.5032 -4.07958 53.5808
CA -29.7948 25.8038 83.0876
CA -33.3756 7.29839 61.7149
CA -23.9194 14.9546 65.6831
CA -14.9625 19.7507 61.2205
CA -24.7203 29.036 35.3369
CA -17.5204 9.73576 61.5205
CA -21.8395 16.0096 22.3344
CA -34.6208 5.84467 62.0033
CA -44.9511 11.069 48.115
CA -28.701 -8.00206 49.3065
CA -26.7099 13.4914 34.7
CA -21.3315 -2.15603 77.2429
CA -18.3335 20.5469 34.3289
CA -9.84375 24.0484 85.5036
CA -17.5255 17.2528 23.7318
CA -25.7838 -15.3359 46.6971
CA -11.4652 -5.96664 70.7946
CA -49.685 0.619846 40.6474
CA -38.7547 27.543 62.6444
CA -13.8698 -4.64771 72.6495
CA -24.7866 24.3318 68.3133
CA -15.0434 7.33647 71.8834
CA -43.1989 11.8822 58.5859
CA -31.767 -10.5676 46.6067
CA -38.2309 -4.33314 69.1664
CA -37.9747 22.4189 35.6916
CA -18.8505 -3.98881 45.954
CA -25.6464 11.8007 71.6322
CA -38.8817 18.3899 47.3001
CA -52.7086 -3.45071 41.4885
CA -16.7904 5.86435 72.2926
CA -16.4911 21.5754 42.4171
CA -9.37264 28.1982 38.5547
CA -33.6832 16.8248 52.5301
CA -13.7553 20.7877 38.3686
CA -10.8905 32.2659 17.9056
CA -44.0603 0.166231 42.3623
CA -32.7755 25.2747 85.1786
CA -7.21035 21.0428 40.2213
CA -19.7819 4.6164 68.8759
CA -17.7984 17.0604 19.6708
CA -24.3834 14.2148 69.8825
CA -35.8798 21.3918 36.981
CA -20.547 -10.3122 47.3617
CA -11.1863 10.291 56.726
CA -16.9681 19.2757 21.4993
CA -31.9431 2.28115 69.4887
CA -34.2178 28.478 53.0369
CA -32.4991 -6.6625 67.2992
CA -34.6576 26.3911 64.5539
CA -19.1461 15.3174 52.4163
CA -13.4035 10.5979 65.9961
CA -33.9765 24.0971 37.2851
CA -39.8422 -5.36344 43.3391
CA -23.7687 13.6428 81.6951
CA -28.2137 18.8297 75.9715
CA -40.2625 3.70206 53.0348
CA -12.9013 2.24087 53.6342
CA -25.4805 22.4868 74.7074
CA 7.11129 -14.921 36.8632
CA -27.7567 14.4791 63.8398
CA -26.7892 -3.45302 46.7065
CA -27.1787 21.4189 62.4857
CA -13.4014 3.33591 45.634
CA -5.86666 -6.28971 67.006
CA -41.9427 -1.84685 45.9228
CA -10.2152 23.6128 46.4666
CA -24.5007 9.61197 58.4502
CA -16.062 -5.66795 90.6486
CA 0.732343 -15.0145 37.1452
CA -34.9682 -4.59471 48.1828
CA -23.7476 26.7108 73.9712
CA -8.42149 4.71893 58.9435
CA -37.3529 29.2167 50.7568
CA -8.29865 -7.46841 67.6063
CA -13.1123 16.7118 62.1218
CA -29.8038 -7.05433 51.0472
CA -35.2041 20.2783 72.0453
CA -21.698 -12.511 83.0141
CA -14.9781 -11.4808 45.102
CA -19.5342 12.2119 46.0892
CA -25.7678 -2.07232 75.1881
CA -21.0865 13.3699 69.8946
CA -4.82392 0.611351 63.7019
CA -21.6789 -8.7492 68.2633
CA -24.859 27.8109 37.6051
CA -33.6887 0.203761 48.5066
CA -31.4233 29.5089 63.8411
CA -20.1562 -5.74084 90.4182
CA -22.2459 18.6875 33.3061
CA -15.2943 -10.7404 76.3931
CA -50.3659 10.4675 47.5655
CA -5.20837 15.0856 40.6841
CA -6.55021 17.0779 67.9902
CA -26.1037 -3.83572 72.2293
CA -19.0944 21.7038 67.1065
CA -29.0196 22.8138 35.0534
CA -22.8207 19.8261 22.3837
CA -25.3074 11.9688 55.2856
CA -26.9916 -8.06549 68.4352
CA -20.5257 -20.1679 85.9012
CA -22.7366 13.2427 18.6994
CA -23.6597 -10.808 87.1183
CA -36.9706 18.2573 62.2953
CA -27.5339 -7.26531 52.1535
CA -33.5785 23.5322 63.709
CA -10.0566 21.8336 17.7973
CA -32.6252 29.5497 44.4923
CA -20.6668 18.1686 81.0756
CA -18.411 -3.58578 73.5334
CA -30.2418 22.7307 77.1311
CA -35.6776 -17.3087 47.4884
CA -37.9946 -0.877647 50.6333
CA -11.0452 9.3975 21.5996
CA -22.0027 -13.8325 59.7334
CA -28.8506 12.6234 73.3619
CA -22.4548 -15.6096 53.8517
CA -14.9331 18.5289 32.5308
CA -33.6645 17.8306 72.1746
CA -30.4195 28.198 45.3473
CA -35.3674 -7.4414 46.8929
CA -0.540631 23.1479 15.7141
CA -13.1339 15.4008 21.0365
CA -3.53583 -20.6406 52.2678
CA -4.18582 -5.92427 65.6218
CA -35.0038 9.97915 64.457
CA -28.8036 17.1953 34.4048
CA -10.6092 12.6629 65.8105
CA -13.0899 -12.529 74.0756
CA -18.943 6.57321 47.3432
CA 0.507473 -13.503 45.3494
CA -18.7131 -12.9197 53.4782
CA -33.3786 -1.63728 67.3863
CA -18.643 4.09079 72.0626
CA -27.7052 28.6326 36.6478
CA -17.2917 26.0562 77.5456
CA -23.4675 17.5976 56.1657
CA -26.61 5.7634 50.366
CA 8.60155 -9.1996 41.2093
CA -11.1916 5.5965 57.9136
CA -12.375 -0.256055 53.0956
CA -36.7995 -16.4402 45.9307
CA -1.33288 -11.0522 61.3216
CA -48.5125 -1.62499 44.261
CA -38.093 -6.90202 43.6771
CA -38.5679 14.5985 60.4179
CA -8.03374 24.6982 41.3562
CA -12.3991 17.4723 19.4221
CA -13.5189 -0.266557 76.1539
CA -18.7874 -13.3906 51.2513
CA -20.0861 31.918 82.4163
CA -43.4324 -2.42888 43.6462
CA -33.8577 -15.4517 49.3589
CA -21.0767 28.3458 80.5334
CA -7.37853 22.9362 20.4351
CA -35.992 26.791 38.9818
CA -14.5172 -3.77361 50.8342
CA -19.4391 -16.8221 58.3529
CA -11.9914 25.8432 19.621
CA -9.71969 27.0781 15.6228
CA -9.78867 -6.84153 80.7385
CA -8.8304 29.6857 84.138
CA -15.9822 19.6492 47.5142
CA -28.9314 14.6904 38.9887
CA -36.2231 33.7054 52.034
CA -32.8725 9.31173 64.9623
CA -10.2116 20.2702 69.3022
CA -29.9145 7.84429 51.841
CA -47.641 9.32123 46.1468
CA -18.4684 -4.55368 54.3182
CA -33.4957 0.7299 69.7951
CA -34.0331 12.9943 55.3968
CA -36.0275 18.9034 59.5804
CA -20.9888 15.8477 73.1464
CA -20.3411 -10.1696 53.9345
CA -39.2888 25.0108 41.8144
CA -32.8396 -7.68881 45.2318
CA -41.8008 4.51518 51.2987
CA -33.894 27.4626 68.1088
CA -36.3251 25.524 68.8342
CA -22.551 25.4964 75.0955
CA -5.62171 7.53789 47.4448
CA -20.6077 -3.89326 81.1919
CA -49.4718 -0.906589 34.826
CA -12.6877 -5.52539 89.5698
CA -14.1302 13.0692 54.593
CA 5.88104 -8.40255 37.8856
CA -14.5349 -15.3934 54.3531
CA -36.8685 22.4903 77.0289
CA -38.0498 37.1768 53.3819
CA -34.3021 -7.60524 61.0448
CA -46.1883 4.37974 35.1894
CA -26.9883 -5.76755 57.6479
CA -34.1242 5.9949 55.4491
CA -24.375 21.3604 71.7211
CA -36.1145 -7.28382 55.242
CA -4.11942 22.8679 17.471
CA -39.6553 9.49067 66.9606
CA -24.8424 20.9789 63.5963
CA -30.0842 15.6937 69.9697
CA -22.5597 -4.33298 48.1609
CA -30.713 -5.31439 64.21
CA -32.5594 14.4618 57.0773
CA -26.1236 -9.63456 70.1309
CA -20.8963 -8.90397 43.928
CA -4.3598 -18.69 55.263
CA -16.8453 -8.53654 39.8627
CA -9.75737 28.3841 33.808
CA -6.18779 17.9787 36.8017
CA -32.3387 22.4532 59.0193
CA -23.2929 27.0517 39.7286
CA 3.38538 -12.7371 55.0251
CA -37.2361 12.5259 44.7848
CA -39.6479 30.3492 60.6064
CA -21.6934 26.4637 71.5515
CA -9.52714 29.5642 15.6542
CA -16.6551 5.86794 44.889
CA -11.2653 15.2047 36.9726
CA -14.4648 -4.3405 64.2107
CA -26.3822 12.1668 61.3161
CA -16.7189 -3.13773 75.8116
CA -26.5857 23.4634 62.93
CA -24.0564 14.4657 34.1068
CA -17.2717 31.1172 18.566
CA -14.6802 19.2966 40.1722
CA -17.9362 -11.9441 54.9272
CA -31.0481 -0.994326 69.3658
CA -23.9657 -7.05981 43.0478
CA 0.905033 -11.1468 55.4576
CA -23.2978 15.8746 68.7019
CA -39.9495 11.8549 44.2106
CA -23.1049 -15.1698 59.0091
CA -10.9062 -8.38838 71.3234
CA -47.2749 0.730551 35.8443
CA -5.27944 15.4816 17.0953
CA -10.2064 -7.17541 74.8296
CA -26.8955 15.0346 76.3519
CA -33.8391 12.2609 51.7805
CA -17.8502 5.98905 59.5897
CA -35.3575 11.8415 61.0821
CA -16.3976 9.65349 42.1596
CA -11.3212 29.9715 15.8491
CA -23.7564 -5.96312 82.2744
CA -52.0079 -0.960161 39.4376
CA -36.0178 8.47614 57.8521
CA -36.2297 8.28324 52.0795
CA -4.31731 16.2071 67.2965
CA -22.9067 -3.59424 81.1413
CA -18.5328 27.9875 16.8873
CA -12.662 3.97101 52.4351
CA -4.26397 -10.3466 77.0971
CA -32.2774 21.2909 74.1373
CA -3.27879 12.6222 40.4038
CA -20.2389 -1.70457 50.1668
CA -32.8352 18.9625 67.7377
CA -13.9062 -8.0025 46.148
CA 2.82198 -4.39871 47.5376
CA -24.8037 -6.75712 56.5318
CA -13.3751 1.95646 71.8893
CA -33.8171 17.8382 36.2504
CA 2.18095 -15.7104 36.1607
CA -16.8848 20.7806 51.4768
CA -20.5575 25.0893 14.3606
CA -31.9808 19.536 76.1454
CA -32.9445 -3.21195 57.0996
CA -7.72792 8.7019 43.5783
CA -21.4218 19.0454 54.629
CA -17.511 -5.11679 88.2996
CA -29.0336 19.343 79.2343
CA -22.8308 -14.2655 88.9808
CA -26.7728 7.36934 55.3424
CA -23.5851 18.2909 37.4903
CA 3.10964 -8.09934 61.2086
CA -17.3375 23.3873 64.904
CA -13.2207 21.0219 21.5415
CA -23.8452 -6.91676 46.4141
CA -24.722 2.27459 73.8419
CA -24.5585 25.3465 58.9707
CA -26.6217 14.9292 82.2183
CA -19.4132 22.7533 70.487
CA -31.3644 13.0261 64.8555
CA 5.0776 -5.58096 42.0834
CA -19.3746 7.61647 58.0841
CA -10.8606 9.25726 26.6685
CA -26.9529 11.7809 83.1958
CA -9.0829 8.14035 46.0166
CA -5.15285 -12.3021 65.7293
CA -12.5316 16.8917 65.5413
CA -36.4342 -11.5213 44.9028
CA -20.537 13.0777 51.9261
CA -29.6685 16.5543 75.7544
CA -10.1657 16.9453 57.9363
CA 4.64096 -7.45494 44.123
CA 5.80695 -7.36846 50.9501
CA -32.2298 -7.5348 51.1246
CA -20.3154 -13.48 57.4392
CA -16.7203 25.2146 16.7497
CA -35.8443 -5.9841 71.0096
CA -29.0804 -16.3885 57.5638
CA -31.3584 -8.76057 45.422
CA -13.1721 4.53407 49.3924
CA -5.81432 13.8514 64.9375
CA -40.605 25.5648 70.9537
CA -16.6448 -0.744158 68.8674
CA -28.7253 -8.47461 61.308
CA -32.4565 14.9204 76.5609
CA -46.1477 -2.30261 38.556
CA -35.8071 -0.349464 70.7497
CA -50.1452 0.745114 44.6452
CA -21.9032 16.1861 79.3429
CA -11.8019 -8.21371 79.7198
CA -11.9613 15.3253 33.9115
CA -15.178 4.24861 67.6135
CA -6.82225 26.0314 29.4429
CA -19.5969 9.49888 60.0293
CA 5.84995 -9.75506 41.1927
CA -13.9632 23.0997 48.0356
CA -12.9647 13.4073 68.0359
CA -20.5227 -0.579171 77.7233
CA -24.9854 -10.289 62.7958
CA -11.5089 24.9055 30.3583
CA -25.4773 21.2356 60.3892
CA -34.4021 -5.79213 46.2274
CA -26.7747 24.3511 59.2142
CA -22.0665 -9.73673 86.8448
CA -21.5858 15.2773 19.1454
CA -10.3103 13.6746 24.877
CA -41.2222 -9.72602 55.8211
CA -34.0299 15.2874 51.0937
CA -14.5398 -12.3475 71.3594
CA -39.155 10.9347 55.2215
CA -10.4455 23.5862 31.3349
CA -20.6875 23.5019 23.8729
CA -21.0159 19.6378 19.2155
CA -24.3461 26.0242 69.9609
CA -15.2597 -1.11569 73.5555
CA -20.4913 -8.1618 45.6039
CA -16.5855 1.24434 54.6277
CA -20.1261 -12.7278 46.46
CA -45.3617 13.5331 60.3402
CA -22.2396 11.2881 53.2667
CA -21.5669 -13.5354 84.654
CA -30.0754 27.1499 42.1258
CA -1.31367 -10.2601 55.1793
CA -31.9264 27.0577 51.0246
CA -15.0125 15.9663 76.5911
CA -29.509 26.282 75.8953
CA -34.0531 19.129 55.6146
CA -19.1596 15.614 77.6256
CA -31.2419 10.6994 73.2729
CA -20.3308 -4.48909 64.5735
CA -28.6047 24.0032 38.7851
CA -45.4402 6.18451 50.7561
CA -42.4532 -4.87958 67.6366
CA -11.4334 22.0367 65.9058
CA -6.8906 20.8282 19.7297
CA -36.7784 9.79212 63.5466
CA -18.9384 -7.28304 40.1301
CA -3.39507 -14.414 60.5393
CA -24.8438 15.6496 80.4554
CA -27.2396 11.6247 35.0144
CA -30.4229 13.9296 55.1819
CA -32.5122 1.66916 57.0196
CA -13.7407 26.5808 15.1767
CA -19.2233 7.13975 54.2782
CA -32.4994 18.499 70.9698
CA -29.9734 -18.4731 48.9239
CA -43.61 7.24798 49.4282
CA -14.7381 31.7037 84.3557
CA -45.4132 -8.14471 53.6648
CA -17.6721 27.9288 83.847
CA -0.413595 -11.2519 68.1158
CA -6.32637 14.4738 18.5719
CA -26.8327 25.3792 34.4992
CA -28.7464 19.72 65.5042
CA -25.5168 20.6056 50.818
CA -27.7689 16.5779 84.8865
CA -21.7574 19.6842 46.4575
CA -22.2622 20.4303 73.3977
CA -24.9532 -0.168492 72.9166
CA -13.561 27.6285 80.5079
CA -22.7052 -16.2504 85.1824
CA -36.571 11.9178 56.2713
CA -22.7339 -2.51271 45.5686
CA -19.3411 3.13965 70.6489
CA -19.3489 13.896 70.9739
CA 3.21115 -14.3021 39.8419
CA -45.8368 -0.169988 37.5248
CA -21.6237 17.9225 24.3745
CA -31.787 28.066 42.8366
CA -27.0077 19.3359 34.8671
CA -38.3849 19.5121 76.9432
CA -1.53393 -2.15673 62.375
CA -13.3834 19.1749 33.6346
CA -28.7979 13.064 60.8239
CA -18.9489 23.7379 15.3445
CA -20.1486 27.8588 78.8552
CA -15.7641 2.36278 76.1059
CA -22.0661 11.7261 69.8438
CA -18.7998 -8.61546 44.046
CA 3.86943 -6.28403 38.4155
CA 0.63219 -9.17766 68.8395
CA -23.7555 6.03234 44.5421
CA -44.6483 5.97564 46.361
CA 2.39573 -11.3457 51.1624
CA -1.62879 -15.0902 41.0145
CA -31.9739 25.7483 68.4231
CA -23.0077 30.9325 16.8482
CA -20.7275 -5.15735 85.7386
CA -16.1023 22.0931 37.0813
CA -24.5198 1.24352 77.371
CA -37.5689 1.71658 54.7991
CA 0.492758 -9.42345 58.4744
CA -24.2807 -17.0443 58.564
CA -8.32329 14.1572 27.6566
CA -28.9328 24.606 80.76
CA -34.6072 -1.29654 69.023
CA -34.3075 -4.6798 41.7306
CA -8.63327 -6.32863 65.0271
CA -34.4163 6.54909 64.4438
CA -34.4012 -7.54981 50.8168
CA -33.213 9.43905 62.5057
CA 3.23421 -6.18875 66.3128
CA -23.0689 14.3555 72.6027
CA -4.36375 17.9157 38.1435
CA -6.54537 20.519 16.465
CA -4.5324 16.5291 64.0506
CA -27.884 10.5112 58.8797
CA -33.7809 27.8447 44.9452
CA -38.892 -16.3307 43.8778
CA -18.492 -10.6245 46.0053
CA -39.7228 -11.5115 53.8349
CA -1.48567 -10.1914 65.5571
CA -14.5019 29.5356 15.2778
CA -14.0352 20.8775 26.2388
CA -10.7437 9.9524 43.8811
CA -11.3097 22.1866 19.059
CA -22.7774 7.05315 85.2098
CA -16.9533 -7.73769 91.2956
CA -3.40851 -3.07488 65.5944
CA -19.1467 18.9087 47.491
CA -17.7627 8.48864 65.5933
CA -13.501 10.5342 25.3762
CA -3.44938 -18.1646 59.6369
CA -21.8609 23.2538 70.7772
CA -18.9247 12.4934 66.8183
CA -15.3555 0.0914744 72.0513
CA -0.766984 -12.7942 62.0665
CA -19.2249 21.3496 43.8077
CA -29.8445 26.324 58.7957
CA -8.78215 24.7758 46.172
CA -30.2061 -12.6647 46.3804
CA -26.6482 9.86509 86.7234
CA -28.167 8.56444 55.1792
CA -16.5922 4.5493 47.4182
CA -12.4125 18.8241 60.0466
CA -18.3274 -2.40442 53.544
CA -36.1132 16.3094 65.1817
CA -35.4854 25.027 57.0521
CA -25.2445 -6.43573 54.3254
CA -16.7406 18.8789 45.2903
CA -24.6676 25.3717 66.4898
CA -20.0915 -9.15534 84.5115
