489

CA -35.2885 26.7363 47.9849
CA -22.8593 18.7845 35.5371
CA -36.406 -4.25198 67.9828
CA -43.1992 -2.99845 43.5876
CA -17.0329 12.7319 58.4995
CA -31.0305 5.56097 44.3867
CA -21.5555 3.48037 62.1427
CA -25.9804 16.4054 73.2039
CA -20.8813 23.2437 15.1548
CA -8.21798 14.8108 39.0908
CA -11.6343 22.1405 16.392
CA -7.74696 -7.61337 75.683
CA -27.5273 6.7433 50.0608
CA -27.5331 7.83097 76.7903
CA -7.25405 31.0549 18.2515
CA -30.5864 24.0473 59.4011
CA -23.5895 29.0705 77.9354
CA -37.506 17.2495 72.9952
CA -7.27485 14.8973 21.2448
CA -13.3497 -5.66036 48.6844
CA -13.8676 13.7804 41.0138
CA -13.208 23.7936 27.5139
CA -22.8628 6.64389 84.4767
CA -27.1027 22.1953 73.1904
CA -22.4134 27.7828 69.3694
CA -20.5032 -4.07958 53.5808
CA -22.7858 -10.2413 57.8555
CA -23.7923 7.8891 70.3561
CA -23.9194 14.9546 65.6831
CA -18.7376 -14.1548 58.9652
CA -34.1359 3.62481 55.311
CA -33.2765 23.1791 43.3067
CA -25.5492 4.91646 73.5055
CA -34.6208 5.84467 62.0033
CA -27.4865 12.2451 75.9552
CA -28.7598 -8.04564 42.9816
CA -25.6285 2.98515 74.0095
CA -9.25564 13.4294 14.7371
CA -38.533 -2.60393 67.5315
CA -20.2077 -13.8122 72.4816
CA -24.2756 -8.58153 73.7803
CA -14.5998 -7.60359 66.6599
CA -15.2221 28.7542 22.0026
CA -33.7995 -13.0901 56.4807
CA -26.1944 10.5173 60.9908
CA -42.596 6.0913 50.3775
CA -24.7866 24.3318 68.3133
CA -21.3056 -1.62302 46.8496
CA -43.1989 11.8822 58.5859
CA -21.3506 22.4249 8.75756
CA -21.0818 33.5153 80.4323
CA -36.451 32.2593 46.0635
CA -37.0005 20.0294 41.8865
CA -46.9557 7.31242 49.9472
CA -31.5657 19.4829 68.7709
CA -39.3115 -12.9033 51.3173
CA -28.5882 20.9786 62.378
CA -24.6434 -15.2036 50.5197
CA -52.3235 1.59504 35.7348
CA -36.7152 -2.11343 48.2416
CA -12.8455 12.0242 11.8888
CA -10.8905 32.2659 17.9056
CA -18.1542 -4.07902 90.3171
CA -29.99 -6.86441 65.9811
CA -18.8562 7.52601 48.1412
CA -20.2202 23.1546 18.8433
CA -44.8642 -9.51179 52.6607
CA -29.2065 10.6286 41.1255
CA -16.2689 -4.80096 54.295
CA -9.61236 6.73981 57.1732
CA -11.4613 27.1464 47.7036
CA -20.0714 5.71323 56.281
CA -31.9431 2.28115 69.4887
CA -22.3042 -0.181042 62.9054
CA -24.659 23.3412 22.8741
CA -25.7016 0.773251 76.3569
CA -27.4176 22.1989 71.1075
CA -45.805 2.336 44.5722
CA -33.9765 24.0971 37.2851
CA -20.4208 30.409 16.3864
CA -40.5595 -7.05464 44.13
CA -45.5341 2.85121 41.8588
CA 3.80339 -4.83724 43.2168
CA -12.9013 2.24087 53.6342
CA -1.18095 -2.20991 71.2874
CA -11.6274 30.6749 19.1909
CA -14.4304 9.86704 62.4686
CA -28.3049 9.42515 67.3067
CA -10.1405 11.3641 55.3812
CA -20.1762 -7.46298 56.847
CA -15.9465 11.4012 51.423
CA -11.316 9.95921 32.011
CA -18.4163 18.82 38.8271
CA -24.5007 9.61197 58.4502
CA -25.7231 -22.3587 58.5779
CA -20.9316 23.6843 58.8355
CA -34.9682 -4.59471 48.1828
CA -20.017 18.4739 27.1895
CA -36.631 -17.0631 43.7343
CA -18.8531 3.92473 46.1225
CA -8.29865 -7.46841 67.6063
CA -45.1411 2.64783 51.5249
CA -17.0165 -10.0335 41.396
CA -23.5892 -11.2385 49.4472
CA -17.8287 2.51294 79.2624
CA -14.3664 22.0309 7.28188
CA -0.717714 20.7573 16.9892
CA -32.0771 11.5832 40.9624
CA -15.7692 14.3248 41.2085
CA -13.16 22.8142 58.1621
CA -21.6789 -8.7492 68.2633
CA -23.9133 22.2217 21.0654
CA -8.7471 14.8626 25.8394
CA -26.1303 16.1206 33.4358
CA -20.1562 -5.74084 90.4182
CA -43.1684 -7.36483 67.9471
CA -27.5467 -8.67127 80.3124
CA -6.18641 2.50432 62.2513
CA -37.5525 8.70486 65.5994
CA -37.7746 -9.55437 54.2664
CA -27.9755 -18.7836 59.5938
CA -35.8039 -1.5769 73.7144
CA -42.1491 -0.140732 45.003
CA -29.7772 14.1497 76.9878
CA -24.885 13.9109 58.4177
CA -8.97456 17.2379 19.3382
CA -18.2283 20.8007 59.615
CA -16.9089 24.0068 50.9224
CA -40.3875 10.5533 56.7283
CA -17.6332 20.5562 10.9267
CA -28.6939 29.8167 40.9418
CA -8.91005 23.2708 31.7449
CA -10.0566 21.8336 17.7973
CA -22.5637 19.822 16.8132
CA -15.467 -1.91134 52.9881
CA -25.1474 -14.5056 68.29
CA -22.58 12.5265 77.0764
CA -1.32231 -4.70152 67.0286
CA -37.9946 -0.877647 50.6333
CA -22.7251 -7.11444 93.0063
CA -12.4762 8.24072 42.5146
CA -28.8506 12.6234 73.3619
CA -5.95994 16.0606 14.0541
CA -24.6917 13.2092 60.09
CA -38.8888 2.74164 59.075
CA -18.0528 10.2298 44.5809
CA -15.5229 11.3275 43.431
CA -0.540631 23.1479 15.7141
CA -41.798 -2.63922 66.4506
CA -18.2378 -11.3108 60.5219
CA -29.8361 22.2024 66.0036
CA -9.52914 28.6782 24.5503
CA -28.8036 17.1953 34.4048
CA -0.879684 -7.26234 57.623
CA -28.6413 -4.7816 45.2299
CA -45.8276 8.12858 38.1518
CA -35.053 12.5178 57.8958
CA -31.292 -2.38826 70.8557
CA -25.6166 8.72313 62.424
CA -18.643 4.09079 72.0626
CA -4.06784 -3.03883 67.8174
CA -24.2888 25.0837 80.8053
CA -20.5213 1.4366 80.8824
CA -8.81472 -3.45124 71.7566
CA -15.25 -3.22143 62.6761
CA -18.989 16.2398 56.4391
CA -28.7639 13.0112 42.6197
CA -35.1011 -9.51101 62.2484
CA -11.9284 25.5412 55.0318
CA -24.4046 12.1469 36.5275
CA -38.093 -6.90202 43.6771
CA -14.1552 17.7895 16.1208
CA -43.5226 -1.25162 46.1852
CA -33.0073 -11.8506 47.5568
CA -21.0839 -15.0863 89.6577
CA -9.81693 -6.75603 65.2771
CA -20.0861 31.918 82.4163
CA -16.2867 13.0067 54.2803
CA -33.8577 -15.4517 49.3589
CA -35.2308 3.38291 51.7336
CA -7.37853 22.9362 20.4351
CA -13.8263 24.3518 16.5451
CA -27.9162 -3.43709 66.7243
CA -15.6845 -5.20191 45.174
CA -15.366 23.8431 52.8314
CA -22.5499 -13.4974 64.77
CA -40.0245 22.6404 74.892
CA -31.6771 31.644 44.0904
CA -28.8102 -7.67016 53.2117
CA -28.9314 14.6904 38.9887
CA -20.5084 7.77362 58.2273
CA -25.5822 -5.01704 73.9229
CA -12.3642 14.1689 11.1573
CA -2.74678 23.3444 15.1865
CA -18.3847 -2.60258 88.242
CA -47.9367 3.60031 34.4395
CA -29.8527 5.98187 48.3886
CA -14.9575 13.5514 30.5131
CA -20.5001 18.3779 79.5066
CA -25.7459 -8.35013 76.6709
CA -20.3411 -10.1696 53.9345
CA -27.3734 21.1574 60.5298
CA -15.4921 10.3337 49.0203
CA -41.8008 4.51518 51.2987
CA -25.2741 20.109 34.1956
CA -23.443 22.3941 61.5856
CA -25.7703 18.0767 65.0094
CA -18.7324 -1.13619 75.4791
CA -24.8484 14.436 77.7184
CA -29.3152 6.98885 45.6057
CA -17.3657 -11.1539 53.0822
CA -26.3409 14.3357 40.2874
CA -22.9 -15.8785 65.1333
CA -25.9643 20.3709 71.1185
CA -39.3615 10.7458 50.3271
CA -46.1685 -6.82265 67.3078
CA -28.864 20.1799 39.153
CA -39.6941 -2.4786 42.226
CA -17.5177 10.4314 42.8299
CA -24.874 -10.1992 85.4665
CA -12.3434 19.5895 68.8793
CA -36.1145 -7.28382 55.242
CA -4.11942 22.8679 17.471
CA -25.676 -18.7138 51.142
CA -28.8211 25.8276 76.2065
CA -21.3709 -5.90855 37.0834
CA -11.178 18.3994 67.5298
CA -35.9929 4.52764 58.5962
CA -20.3478 -17.1882 75.2795
CA -17.7703 12.3596 52.5595
CA -32.3277 11.0538 43.1768
CA -39.1944 -3.98418 38.3299
CA -26.5605 19.5691 57.0158
CA -48.9608 6.19279 37.6951
CA -23.9332 -22.5168 57.4682
CA -12.1444 3.45037 55.8225
CA -17.2555 24.0704 59.5931
CA 3.38538 -12.7371 55.0251
CA -36.5495 32.0603 49.5251
CA -38.3253 6.4718 48.3322
CA -38.3214 10.2983 53.0524
CA -22.4367 -3.39002 74.3566
CA -16.6551 5.86794 44.889
CA -44.0279 -2.29348 66.9903
CA -14.4648 -4.3405 64.2107
CA -24.807 23.3074 71.1846
CA -32.4665 13.3696 39.9259
CA -14.4009 23.119 49.8875
CA -18.4953 20.7712 39.0834
CA -17.2717 31.1172 18.566
CA -14.6802 19.2966 40.1722
CA -34.2516 32.303 48.0856
CA -21.4737 -11.0422 90.7665
CA -23.9657 -7.05981 43.0478
CA -25.6668 -10.3838 80.4953
CA -35.9916 6.71531 53.9487
CA -21.6401 -13.6301 87.4179
CA -33.2955 0.954641 50.536
CA -25.3616 -4.27782 53.6077
CA -36.7541 -10.751 59.788
CA -5.27944 15.4816 17.0953
CA -13.9685 17.9291 73.5762
CA -27.9062 -8.34812 69.5715
CA -18.0295 -17.106 79.9331
CA -30.8069 -10.6749 67.4387
CA -28.5016 -13.208 57.9852
CA -42.2569 -3.27924 34.7987
CA -14.4003 17.3069 26.748
CA -23.7564 -5.96312 82.2744
CA -40.6124 21.437 71.1778
CA -43.0733 -0.854301 31.6345
CA -24.7703 -14.41 85.1203
CA -7.03738 14.008 13.693
CA -14.2097 8.87618 53.6212
CA -23.8658 -6.45866 70.1444
CA -39.9973 4.36899 51.0646
CA -21.0761 2.96335 70.9008
CA -4.10917 26.4121 44.2669
CA -32.6766 -5.01684 62.5711
CA -13.9778 18.5922 38.0091
CA -5.12529 23.6396 34.5562
CA -13.9062 -8.0025 46.148
CA 2.82198 -4.39871 47.5376
CA -10.7189 17.2124 41.7697
CA -13.3751 1.95646 71.8893
CA -11.1648 5.2644 44.5653
CA -20.6346 -16.103 91.536
CA -6.57045 -5.58302 70.4259
CA -40.3077 28.1263 45.4065
CA -42.6563 0.467196 64.485
CA -21.8518 1.75644 61.2303
CA -29.2076 -6.52934 46.2289
CA -21.4218 19.0454 54.629
CA -17.511 -5.11679 88.2996
CA -44.4007 -0.311599 42.4482
CA -12.1319 -4.06914 47.9657
CA -17.2406 20.1429 72.3894
CA -2.91427 28.8617 50.0746
CA -24.9112 16.3109 35.8272
CA -26.2095 -6.42472 45.2496
CA -53.1786 8.1679 36.1271
CA -21.0957 9.22086 57.1647
CA -26.3439 3.85912 71.6852
CA -1.29667 -0.209629 62.9463
CA -33.7485 -8.14079 62.1841
CA -24.2716 14.5723 40.6058
CA -37.0298 21.6402 39.3229
CA -6.01495 23.0708 29.4392
CA -38.227 2.23701 47.793
CA -10.118 -6.64334 48.8469
CA -19.3436 -0.826386 44.7884
CA -18.5866 -17.3689 84.4814
CA -19.3725 -3.12883 40.108
CA -19.5192 16.4467 26.4681
CA -36.4342 -11.5213 44.9028
CA -19.3942 6.69933 60.9365
CA -18.4295 -11.5762 49.9367
CA -42.0547 19.3468 75.9255
CA -25.3784 -19.5965 48.145
CA 5.80695 -7.36846 50.9501
CA -21.0198 22.1159 33.7311
CA -16.8058 11.1509 66.3854
CA -46.0027 -12.444 52.0098
CA -22.2699 24.429 88.1741
CA -29.7233 3.04237 44.1749
CA -13.8874 -0.948558 71.5476
CA -14.5682 20.3916 43.982
CA -38.8456 22.6263 71.1706
CA -40.605 25.5648 70.9537
CA -16.6448 -0.744158 68.8674
CA -18.6515 14.5008 26.7768
CA -25.5432 -3.64322 48.3416
CA -27.413 11.9352 52.5729
CA -32.6822 7.77391 61.3603
CA -32.8357 6.16005 68.1065
CA -21.9032 16.1861 79.3429
CA -16.3926 -0.622647 63.7892
CA -18.3648 -6.40068 44.4884
CA -19.733 27.4902 21.0299
CA -6.82225 26.0314 29.4429
CA -1.56031 0.0529428 69.8533
CA -4.5738 28.0524 46.8758
CA -32.3979 -3.60269 54.0029
CA -20.7945 -12.3732 49.5221
CA -20.5227 -0.579171 77.7233
CA -15.7799 14.0787 46.0519
CA -41.7527 -11.1494 52.4169
CA -29.4756 -17.8752 55.5732
CA -30.5717 -6.4522 54.5758
CA -23.7259 -10.6307 44.7545
CA -28.6847 8.377 50.4527
CA -21.5858 15.2773 19.1454
CA -10.3103 13.6746 24.877
CA -33.1495 12.1957 55.7127
CA -34.0299 15.2874 51.0937
CA -17.1404 -17.7195 87.9975
CA -26.4131 -9.48944 46.0885
CA -31.3491 21.1441 79.0697
CA -43.6177 1.38129 46.6194
CA -21.0159 19.6378 19.2155
CA -19.2667 27.6492 80.5336
CA -12.7678 1.91073 56.6985
CA -10.0158 24.0938 19.0004
CA -16.5855 1.24434 54.6277
CA -16.2098 21.4758 62.2555
CA -14.5347 24.8886 13.68
CA -22.2396 11.2881 53.2667
CA -21.5669 -13.5354 84.654
CA -9.03591 16.6657 25.8106
CA -29.857 23.9759 78.8981
CA -18.8571 22.5771 59.5812
CA -17.1884 -19.2408 83.0313
CA -19.541 10.2671 65.4728
CA -22.2026 -8.68871 94.0138
CA -32.5981 -3.46536 66.8637
CA 7.88715 -6.7912 42.7614
CA -20.3308 -4.48909 64.5735
CA -28.6047 24.0032 38.7851
CA -25.9924 -10.035 75.8602
CA -34.2349 20.6811 65.0641
CA -34.0833 -9.84082 60.5749
CA -47.17 3.46384 40.8868
CA -11.435 8.47108 52.6598
CA -33.8084 19.8126 75.7827
CA -28 -19.6796 56.8293
CA -25.492 -16.2145 59.9501
CA -21.9092 24.7107 84.6155
CA -19.9134 -1.6194 38.5713
CA -24.0641 13.0297 67.7633
CA -42.1098 -5.86255 68.9886
CA -19.2233 7.13975 54.2782
CA -22.1814 -10.0816 74.5996
CA -29.9734 -18.4731 48.9239
CA -13.9059 10.0298 45.4058
CA -14.7381 31.7037 84.3557
CA -21.791 33.7986 15.943
CA -15.6384 16.0309 34.1033
CA -11.6478 19.2656 71.2181
CA -26.0964 24.7956 79.5482
CA -18.9542 -4.95355 43.012
CA -38.8812 22.1537 35.1808
CA -25.5168 20.6056 50.818
CA -26.2541 -6.62779 92.5983
CA -4.31202 -0.166782 68.5576
CA -29.2385 -7.75815 68.4852
CA -24.9532 -0.168492 72.9166
CA -13.561 27.6285 80.5079
CA -17.0387 13.68 12.14
CA -12.6515 28.3903 22.2755
CA -21.7902 -13.0952 62.7788
CA -20.1903 -3.50004 44.4082
CA -9.792 26.6868 26.1443
CA -27.4602 10.4043 53.6942
CA -17.3621 8.61689 65.9175
CA -24.7012 13.7092 17.4832
CA -26.2574 -5.26115 48.7075
CA -27.639 3.33299 51.9029
CA -24.027 6.45795 73.9963
CA -18.9536 24.5886 20.2915
CA -13.3834 19.1749 33.6346
CA -28.7979 13.064 60.8239
CA -18.9489 23.7379 15.3445
CA -20.1486 27.8588 78.8552
CA -17.3553 4.87051 57.4362
CA -32.3034 11.7802 79.0231
CA -19.7972 4.46029 84.8404
CA -12.4862 13.9503 51.781
CA -26.6349 -18.4545 49.2974
CA -10.6044 23.2093 14.3406
CA -44.6483 5.97564 46.361
CA 2.39573 -11.3457 51.1624
CA -20.1548 25.7129 79.1397
CA -25.5331 -13.6395 47.3513
CA -34.5498 5.60689 51.1703
CA -21.5174 -8.41004 38.8116
CA -16.1023 22.0931 37.0813
CA -44.5985 -5.2814 44.0027
CA -10.5228 21.0986 40.0193
CA 0.492758 -9.42345 58.4744
CA -13.4967 7.29924 43.9667
CA -8.32329 14.1572 27.6566
CA -25.9337 28.9631 41.1034
CA -16.5628 -17.8906 85.7645
CA -15.8038 21.6721 24.4633
CA -28.8634 -9.31609 52.0696
CA -13.3372 14.6387 30.3361
CA -19.6387 -7.43894 42.1932
CA -18.0451 -1.94215 62.904
CA -20.8427 15.6678 64.0607
CA -28.3108 -7.91253 57.2533
CA -4.36375 17.9157 38.1435
CA -19.2843 14.8104 81.4294
CA -20.0498 20.5433 35.1303
CA -37.9523 7.90098 51.2051
CA -33.7809 27.8447 44.9452
CA -38.892 -16.3307 43.8778
CA -21.1007 -10.9932 59.8398
CA -39.7228 -11.5115 53.8349
CA -1.48567 -10.1914 65.5571
CA -26.5088 22.0011 78.6966
CA -41.0749 11.3779 58.8108
CA -25.5944 9.46124 46.6454
CA -11.3097 22.1866 19.059
CA -8.56053 16.7476 21.3321
CA -34.139 -6.5137 57.7834
CA -49.5819 2.8719 31.3526
CA -39.4292 -6.49157 68.1318
CA -27.4088 24.2299 74.9043
CA -37.5309 33.48 43.358
CA -33.8663 -14.9204 56.6229
CA -21.8609 23.2538 70.7772
CA -18.9247 12.4934 66.8183
CA -26.0436 -11.5808 66.9958
CA -0.766984 -12.7942 62.0665
CA -23.4185 7.56008 59.8043
CA -15.0933 18.3154 48.5214
CA -8.78215 24.7758 46.172
CA -26.8958 -17.5291 58.3562
CA -35.7768 10.5674 64.2196
CA -18.4471 21.0335 23.9108
CA -27.209 6.77112 45.1556
CA -18.8542 -4.65399 81.5712
CA -16.766 -16.0748 71.8069
CA -31.9402 13.4123 76.6078
CA -22.5409 26.2238 79.1967
CA -27.2097 -8.63132 44.6914
CA -1.97167 -2.78303 62.3549
CA -39.9588 -1.72801 66.4478
CA -12.5879 -6.01044 66.0819
