489

CA -28.5867 10.8684 74.5967
CA -19.0361 11.1393 59.5792
CA -36.406 -4.25198 67.9828
CA -43.1992 -2.99845 43.5876
CA -19.0235 1.57257 46.1634
CA -18.479 23.0229 51.2128
CA -21.9463 4.2554 64.7987
CA -28.7817 -4.39268 79.4881
CA -20.8813 23.2437 15.1548
CA -38.1019 -4.48924 40.7536
CA -11.6343 22.1405 16.392
CA -14.4656 18.471 13.8143
CA -27.5273 6.7433 50.0608
CA -27.5331 7.83097 76.7903
CA -7.25405 31.0549 18.2515
CA -30.5864 24.0473 59.4011
CA -23.5895 29.0705 77.9354
CA -37.506 17.2495 72.9952
CA -35.8041 -2.83664 62.7163
CA -40.4173 16.218 54.5029
CA -27.3858 21.0225 79.4134
CA -22.8497 -4.58813 74.2959
CA -22.8628 6.64389 84.4767
CA -14.3488 26.9988 53.398
CA -22.4134 27.7828 69.3694
CA -20.5032 -4.07958 53.5808
CA -34.5721 20.746 35.4115
CA -25.0002 18.358 79.8943
CA -15.4877 -9.90281 77.366
CA -18.7376 -14.1548 58.9652
CA -29.1229 11.9878 38.419
CA -33.2765 23.1791 43.3067
CA -25.5492 4.91646 73.5055
CA -19.4065 2.49173 83.1006
CA -23.6894 -6.51409 40.6337
CA -28.7598 -8.04564 42.9816
CA -25.6285 2.98515 74.0095
CA -25.2285 22.1928 75.7769
CA -34.5188 -8.27851 49.9973
CA -21.159 -1.16082 85.2326
CA -24.2756 -8.58153 73.7803
CA -12.1648 18.8908 59.6489
CA -24.0362 -13.5824 89.0442
CA -33.7995 -13.0901 56.4807
CA -26.1944 10.5173 60.9908
CA -42.596 6.0913 50.3775
CA -27.4898 -19.2546 60.346
CA 5.54697 -15.7171 57.2612
CA -43.1989 11.8822 58.5859
CA -16.2936 13.3826 39.5442
CA -15.8628 -14.5588 58.1212
CA -33.7756 -5.95781 67.5522
CA -14.1601 -12.6013 60.9647
CA 0.507904 -2.9646 68.0669
CA -31.5657 19.4829 68.7709
CA -38.3458 -4.89714 44.7145
CA -28.5882 20.9786 62.378
CA -38.7609 -4.30535 66.6135
CA -27.2819 6.60771 45.384
CA -36.7152 -2.11343 48.2416
CA -34.5618 -3.06646 39.4488
CA -10.8905 32.2659 17.9056
CA -18.1542 -4.07902 90.3171
CA -19.8615 6.94934 62.9706
CA -18.8562 7.52601 48.1412
CA -20.2202 23.1546 18.8433
CA -13.7299 17.1836 7.44474
CA -10.4042 17.5308 38.1187
CA -26.222 -4.40314 78.7482
CA -25.7544 12.031 62.3937
CA -11.4613 27.1464 47.7036
CA -20.0714 5.71323 56.281
CA -31.9431 2.28115 69.4887
CA -22.3042 -0.181042 62.9054
CA -28.6674 9.54619 75.8882
CA -25.7016 0.773251 76.3569
CA -39.6986 14.497 56.1329
CA -45.805 2.336 44.5722
CA -33.9765 24.0971 37.2851
CA -14.8894 20.2124 49.9382
CA -31.1449 10.0281 43.0611
CA -11.6083 14.8874 51.1014
CA 3.80339 -4.83724 43.2168
CA -24.7629 -2.68432 71.9182
CA -24.7845 -4.28737 80.542
CA -11.6274 30.6749 19.1909
CA -14.4304 9.86704 62.4686
CA -28.3049 9.42515 67.3067
CA -10.1405 11.3641 55.3812
CA -31.8992 9.60172 78.279
CA -21.4701 16.8112 64.5818
CA -19.4914 15.5162 21.0021
CA -18.8628 -3.67277 43.3324
CA -20.5987 -9.47592 46.8336
CA -25.7231 -22.3587 58.5779
CA -33.1448 -5.9337 54.4889
CA -22.0528 -13.9115 78.4638
CA -19.2125 20.5079 62.5174
CA -16.2024 -2.53376 47.5088
CA -18.8531 3.92473 46.1225
CA -21.1753 10.1631 55.5839
CA -45.1411 2.64783 51.5249
CA -18.0094 -5.83476 58.1598
CA -29.6501 -21.1463 60.2348
CA -17.8287 2.51294 79.2624
CA -25.1041 14.0905 51.7267
CA -18.3905 21.3632 74.6126
CA -21.4495 -7.12863 53.4399
CA -35.3469 9.11173 61.8518
CA -13.16 22.8142 58.1621
CA -41.1445 -4.34956 46.9829
CA -23.9133 22.2217 21.0654
CA -21.6454 -21.1916 59.8296
CA -41.4324 12.4498 53.8144
CA -20.1562 -5.74084 90.4182
CA -0.156378 -6.46398 61.8249
CA -27.5467 -8.67127 80.3124
CA -6.18641 2.50432 62.2513
CA -37.5525 8.70486 65.5994
CA -13.3423 7.42019 56.1948
CA -24.1388 -5.47723 44.2123
CA -24.2388 -13.107 93.4093
CA -17.4263 16.8391 63.3291
CA -23.9299 27.887 79.6766
CA -32.1394 -11.3768 64.0164
CA -8.97456 17.2379 19.3382
CA -18.2283 20.8007 59.615
CA -16.9089 24.0068 50.9224
CA -12.3517 -10.2334 76.349
CA -17.6332 20.5562 10.9267
CA -28.6939 29.8167 40.9418
CA -16.3911 -1.52158 79.6151
CA -10.0566 21.8336 17.7973
CA -22.5637 19.822 16.8132
CA -15.467 -1.91134 52.9881
CA -25.1474 -14.5056 68.29
CA -34.9354 1.74589 58.2042
CA -1.32231 -4.70152 67.0286
CA -21.2626 -4.67649 42.673
CA -31.793 -7.54153 88.5326
CA -43.0237 13.7404 61.6564
CA -38.1817 -8.52344 46.133
CA -5.95994 16.0606 14.0541
CA -16.7078 -7.28193 90.5456
CA -24.2284 17.19 77.8607
CA -27.6097 -7.01706 79.3899
CA -15.5229 11.3275 43.431
CA -17.3961 -15.7784 73.5668
CA -41.798 -2.63922 66.4506
CA -13.1726 16.6201 36.2679
CA -29.8361 22.2024 66.0036
CA -16.6588 23.5669 63.5503
CA -19.5014 -0.206396 82.9203
CA -22.0484 -13.7447 74.3994
CA -28.6413 -4.7816 45.2299
CA -12.6771 33.8996 18.2732
CA -42.3412 -0.4278 35.2687
CA -31.8572 7.11907 43.1459
CA -11.8117 23.8086 17.0746
CA -18.643 4.09079 72.0626
CA -16.75 -2.66558 64.7512
CA -29.0035 18.0882 69.3504
CA -19.8173 22.9614 24.4207
CA -20.4354 25.4948 75.3317
CA -23.2903 -1.64666 62.0402
CA -37.5486 -14.7624 41.8055
CA -17.8953 2.38665 47.7676
CA -18.8254 -8.36027 40.5921
CA -11.9284 25.5412 55.0318
CA -33.5389 -16.4655 55.7176
CA -3.2787 26.9467 29.2567
CA -14.1552 17.7895 16.1208
CA -28.7168 5.43058 51.7608
CA -33.0073 -11.8506 47.5568
CA -21.0839 -15.0863 89.6577
CA -35.9173 1.36938 48.6763
CA -20.0861 31.918 82.4163
CA -16.2867 13.0067 54.2803
CA -20.2011 -2.69891 89.165
CA -27.321 5.10102 72.9828
CA -7.37853 22.9362 20.4351
CA -5.45726 26.071 46.9346
CA -7.61017 24.6797 12.0957
CA -3.18781 13.9907 9.6825
CA -15.366 23.8431 52.8314
CA -22.5499 -13.4974 64.77
CA -40.0245 22.6404 74.892
CA -31.6771 31.644 44.0904
CA -25.6961 -7.98861 45.2936
CA -28.9314 14.6904 38.9887
CA 0.112588 0.683303 65.0204
CA -25.5822 -5.01704 73.9229
CA -12.3642 14.1689 11.1573
CA -2.74678 23.3444 15.1865
CA -18.3847 -2.60258 88.242
CA -1.46687 27.7294 50.8874
CA -15.4942 -8.07244 91.9582
CA -28.2968 27.5794 76.9157
CA -10.2886 -10.9768 75.8533
CA -24.1551 22.6784 65.9563
CA -28.435 -5.4587 65.9593
CA -27.3734 21.1574 60.5298
CA -15.4921 10.3337 49.0203
CA -18.3115 1.37472 57.2206
CA -25.2741 20.109 34.1956
CA -23.443 22.3941 61.5856
CA -17.8735 19.4486 56.3607
CA -22.6142 20.4792 33.6197
CA -24.8484 14.436 77.7184
CA -29.3152 6.98885 45.6057
CA -43.9759 -7.47322 62.829
CA -35.3326 8.83849 44.7141
CA -14.3767 15.6672 37.6172
CA -24.4136 -5.44211 71.619
CA -39.3615 10.7458 50.3271
CA -14.8141 -0.594683 76.002
CA -28.864 20.1799 39.153
CA -33.1469 14.8521 41.6182
CA -6.74934 0.696792 61.7935
CA -24.874 -10.1992 85.4665
CA -9.91142 27.9937 20.035
CA -12.2339 22.4057 13.6078
CA -4.11942 22.8679 17.471
CA -43.0151 -1.73595 70.3789
CA -8.7903 27.4756 18.678
CA -35.6682 16.1061 60.4373
CA -33.0211 24.9994 47.0913
CA -35.9929 4.52764 58.5962
CA -20.3478 -17.1882 75.2795
CA -17.7703 12.3596 52.5595
CA -16.4194 17.2286 21.9631
CA -39.1944 -3.98418 38.3299
CA -33.7874 -15.4237 50.0921
CA -35.2791 28.3448 42.8658
CA -23.9332 -22.5168 57.4682
CA -35.4166 11.0987 82.9685
CA -37.9748 -10.1274 50.7551
CA 3.38538 -12.7371 55.0251
CA 2.55664 -11.5646 63.1604
CA -28.348 -14.6867 59.2582
CA -38.3214 10.2983 53.0524
CA -21.6624 27.3834 72.9012
CA -22.2166 23.3387 22.777
CA -44.0279 -2.29348 66.9903
CA -14.4648 -4.3405 64.2107
CA -25.3474 -9.78257 90.5106
CA -34.197 7.86451 60.1958
CA -14.4009 23.119 49.8875
CA -18.4953 20.7712 39.0834
CA -17.2717 31.1172 18.566
CA -44.4043 -5.22773 66.2954
CA -18.726 -5.87899 49.1497
CA -21.4737 -11.0422 90.7665
CA -22.8848 -11.0526 66.4091
CA -17.019 -6.4622 85.2493
CA -35.9916 6.71531 53.9487
CA -21.6401 -13.6301 87.4179
CA -33.2955 0.954641 50.536
CA -23.8195 26.6275 74.6661
CA -20.2626 -2.17713 91.6736
CA -5.27944 15.4816 17.0953
CA -43.35 4.4346 43.6579
CA -41.971 -15.9335 42.2927
CA -18.0295 -17.106 79.9331
CA -30.8069 -10.6749 67.4387
CA -19.3891 31.8444 80.5188
CA -42.2569 -3.27924 34.7987
CA -31.6136 15.4747 42.4809
CA -26.3593 -5.46702 80.1938
CA -4.49106 0.457035 59.7778
CA -42.7684 3.90887 45.5264
CA -10.1365 -4.73083 66.4087
CA -43.1784 -5.44874 71.866
CA -14.2097 8.87618 53.6212
CA -15.8549 29.9245 22.4232
CA -13.3811 12.0959 53.5514
CA -21.0761 2.96335 70.9008
CA -6.70002 -7.93473 77.2766
CA -31.2301 3.56903 61.3877
CA -10.2511 -5.629 74.4258
CA -19.2737 22.8628 47.5345
CA -13.9062 -8.0025 46.148
CA 2.82198 -4.39871 47.5376
CA -10.7189 17.2124 41.7697
CA -16.8362 0.843868 79.0266
CA -8.57888 13.6217 10.4725
CA -20.6346 -16.103 91.536
CA -6.57045 -5.58302 70.4259
CA -17.7643 1.42821 77.5287
CA -24.5511 -7.94802 71.6275
CA -21.8518 1.75644 61.2303
CA -29.2076 -6.52934 46.2289
CA -39.221 -2.4823 40.4467
CA -12.4631 9.86161 47.807
CA -32.1702 -8.28462 55.5606
CA -34.0297 24.9357 39.0667
CA -17.2406 20.1429 72.3894
CA -2.91427 28.8617 50.0746
CA -24.9112 16.3109 35.8272
CA -27.41 22.5455 23.5056
CA -53.1786 8.1679 36.1271
CA -32.514 -0.775607 47.1872
CA -22.1847 3.86828 82.56
CA -13.7687 24.0565 56.7168
CA -35.3111 -11.3241 49.7738
CA -24.2716 14.5723 40.6058
CA -37.0298 21.6402 39.3229
CA -26.201 9.24905 62.3074
CA -21.6223 17.1639 22.6857
CA -10.118 -6.64334 48.8469
CA -23.9471 -14.4887 75.1779
CA -47.8026 2.82277 43.5168
CA -19.3725 -3.12883 40.108
CA -24.8743 -4.36202 75.6719
CA -36.4342 -11.5213 44.9028
CA -18.7092 16.8323 18.5178
CA -37.909 15.026 61.974
CA -42.0547 19.3468 75.9255
CA -17.109 14.2565 22.0718
CA 5.80695 -7.36846 50.9501
CA -51.7191 3.8375 39.451
CA -16.8616 -1.50073 67.8888
CA -21.4928 14.504 80.6032
CA -19.7597 30.2468 85.413
CA -16.9521 1.98198 75.4038
CA -34.3483 16.5597 58.3131
CA -37.8638 16.8301 58.5827
CA -38.8456 22.6263 71.1706
CA -33.8785 2.17513 55.8053
CA -22.6877 6.11542 62.2503
CA -18.6515 14.5008 26.7768
CA -31.3599 14.1068 53.8636
CA -3.58078 -5.39768 62.9093
CA -32.6822 7.77391 61.3603
CA -32.8357 6.16005 68.1065
CA -21.9032 16.1861 79.3429
CA -16.3926 -0.622647 63.7892
CA -40.3586 25.3341 70.3103
CA -27.4995 18.905 72.6206
CA -6.82225 26.0314 29.4429
CA -25.1233 4.84525 44.5081
CA -36.9271 30.1791 46.8712
CA -32.3979 -3.60269 54.0029
CA -20.7945 -12.3732 49.5221
CA -7.55931 -7.3797 71.2618
CA -37.4236 8.98282 55.6445
CA -24.7811 -6.35583 77.3753
CA -35.2191 -7.38079 55.8632
CA -30.5717 -6.4522 54.5758
CA -16.8488 32.8222 17.5731
CA -28.6847 8.377 50.4527
CA -21.5858 15.2773 19.1454
CA -17.0184 21.9572 61.8531
CA -33.1495 12.1957 55.7127
CA -29.1437 -4.12296 54.9436
CA -16.6861 21.7484 46.6567
CA -20.2634 19.2934 23.1951
CA -25.4048 -2.89902 79.4428
CA -4.89654 -7.14612 68.7172
CA -27.1822 -18.0801 54.9131
CA -31.9806 23.8137 73.1344
CA -12.7678 1.91073 56.6985
CA -10.0158 24.0938 19.0004
CA -16.5855 1.24434 54.6277
CA -27.5973 -10.7841 61.2892
CA -31.2585 -6.87997 64.167
CA -22.2396 11.2881 53.2667
CA -21.3353 25.0703 35.5115
CA -9.03591 16.6657 25.8106
CA -37.3295 6.0163 58.9587
CA -16.3868 1.96562 61.0074
CA -16.719 18.269 30.7313
CA -29.0759 -10.4795 90.0541
CA -22.2026 -8.68871 94.0138
CA -32.5981 -3.46536 66.8637
CA -13.3805 -15.1183 35.3597
CA -14.4485 -5.10666 39.2747
CA -28.6047 24.0032 38.7851
CA -15.3413 -7.93815 87.7947
CA -26.1764 4.23539 54.8942
CA -34.0833 -9.84082 60.5749
CA -47.17 3.46384 40.8868
CA 1.39184 29.3948 51.9381
CA -33.8084 19.8126 75.7827
CA -14.7449 -0.354261 44.1732
CA -25.492 -16.2145 59.9501
CA -21.9092 24.7107 84.6155
CA -19.1974 25.5634 15.0058
CA -24.0641 13.0297 67.7633
CA -30.6614 25.5034 57.5121
CA -19.2233 7.13975 54.2782
CA -30.3619 6.19416 41.977
CA -29.9734 -18.4731 48.9239
CA -44.4871 -9.35976 68.6701
CA -35.4252 9.65288 79.6686
CA -34.0695 15.1301 56.4964
CA -15.6384 16.0309 34.1033
CA -11.6478 19.2656 71.2181
CA -16.3787 9.49809 45.1499
CA -25.1266 -12.9647 59.7919
CA -27.4057 13.403 48.724
CA -20.0426 1.02828 41.8487
CA -19.1638 20.56 21.088
CA -23.1737 4.55086 47.2904
CA -20.42 -13.2819 64.9955
CA -24.189 28.8215 39.0601
CA -33.4944 -3.9671 59.3663
CA -17.0387 13.68 12.14
CA -12.6515 28.3903 22.2755
CA -21.7902 -13.0952 62.7788
CA -15.3232 15.9635 24.5405
CA -9.792 26.6868 26.1443
CA -15.9273 8.51741 58.0711
CA -17.3621 8.61689 65.9175
CA -24.7012 13.7092 17.4832
CA -31.1064 17.6431 63.3473
CA -27.639 3.33299 51.9029
CA -31.0937 27.555 75.6571
CA -18.9536 24.5886 20.2915
CA -20.5144 9.24821 62.0201
CA -13.9212 3.97225 56.9235
CA -32.4451 -9.66493 66.4175
CA -20.1486 27.8588 78.8552
CA -17.3553 4.87051 57.4362
CA -29.8024 19.5943 63.0053
CA -19.7972 4.46029 84.8404
CA -23.2401 13.289 36.2413
CA -26.6349 -18.4545 49.2974
CA -10.6044 23.2093 14.3406
CA -44.6483 5.97564 46.361
CA 2.39573 -11.3457 51.1624
CA -22.5033 -20.6995 51.6026
CA -18.3581 -2.71594 45.9946
CA -26.4307 -7.05067 75.9862
CA -21.5174 -8.41004 38.8116
CA -37.1504 -5.08275 65.262
CA -44.5985 -5.2814 44.0027
CA -13.5581 -6.64676 62.6511
CA 0.492758 -9.42345 58.4744
CA -5.15145 15.5057 25.3555
CA -8.32329 14.1572 27.6566
CA -25.9337 28.9631 41.1034
CA 2.67775 -3.24195 65.7729
CA -15.8038 21.6721 24.4633
CA -16.0902 -6.90544 42.6952
CA -13.3372 14.6387 30.3361
CA -13.2835 22.0908 60.2706
CA -26.9819 15.4343 36.7796
CA -39.8252 -5.69782 46.9459
CA -12.3631 17.8078 18.6391
CA -30.8024 10.1991 48.6689
CA -31.3849 16.73 71.3583
CA -20.0498 20.5433 35.1303
CA -16.339 -12.3116 37.4655
CA -33.7809 27.8447 44.9452
CA -38.892 -16.3307 43.8778
CA -21.1007 -10.9932 59.8398
CA -11.2716 -7.50792 76.3907
CA -45.3768 2.85947 46.3038
CA -17.175 -2.54477 44.4046
CA -38.4495 -3.29052 42.085
CA -25.5944 9.46124 46.6454
CA -11.3097 22.1866 19.059
CA -11.6544 26.6109 59.3037
CA -33.489 13.3273 75.1266
CA -44.3559 16.6943 57.7296
CA -18.782 17.64 12.4861
CA -27.4088 24.2299 74.9043
CA -21.097 19.24 66.17
CA -16.2369 0.863357 76.7204
CA -21.8609 23.2538 70.7772
CA -12.4371 19.1738 64.1683
CA -0.73711 -1.74426 60.2982
CA -18.0644 -14.3944 48.2907
CA -23.4185 7.56008 59.8043
CA -16.2913 18.1136 25.8769
CA -8.78215 24.7758 46.172
CA -26.8958 -17.5291 58.3562
CA -15.9287 11.418 10.1516
CA -18.4471 21.0335 23.9108
CA -6.34093 -7.35054 67.6213
CA -25.2606 -11.351 58.785
CA -35.3742 6.99186 45.6056
CA -31.9402 13.4123 76.6078
CA -22.5409 26.2238 79.1967
CA -35.065 9.69088 55.8357
CA -1.97167 -2.78303 62.3549
CA -25.8243 -2.17919 77.4942
CA -12.5879 -6.01044 66.0819
