489

CA -26.81 -0.919021 72.5526
CA -14.2327 1.237 68.3109
CA -44.4825 -3.32927 51.6204
CA -10.2835 18.5185 57.2661
CA -19.0235 1.57257 46.1634
CA -26.6493 -1.10012 47.2242
CA -22.6624 -3.84643 60.0484
CA -28.7817 -4.39268 79.4881
CA -20.8813 23.2437 15.1548
CA -38.1019 -4.48924 40.7536
CA -11.6343 22.1405 16.392
CA -14.4656 18.471 13.8143
CA -27.5273 6.7433 50.0608
CA -27.5331 7.83097 76.7903
CA -7.25405 31.0549 18.2515
CA -30.5864 24.0473 59.4011
CA -19.0968 16.2202 32.0344
CA -37.506 17.2495 72.9952
CA -31.2575 -8.4667 79.2453
CA -11.4363 -9.4642 59.9459
CA -27.3858 21.0225 79.4134
CA -35.9377 -6.48091 43.8542
CA -22.8628 6.64389 84.4767
CA -15.2242 10.3083 57.7146
CA -15.722 10.1185 55.2802
CA -35.9982 6.14824 61.4237
CA -34.5721 20.746 35.4115
CA -25.0002 18.358 79.8943
CA -36.1892 7.71171 54.7132
CA -15.7682 -5.41064 46.6443
CA -39.1435 6.20113 45.4128
CA -40.2035 -3.30746 68.0574
CA -19.4551 17.7714 21.5584
CA -13.116 16.2392 42.5686
CA -8.76635 -1.7158 73.905
CA -28.7598 -8.04564 42.9816
CA -25.6285 2.98515 74.0095
CA -27.2512 7.60702 85.5538
CA -34.5188 -8.27851 49.9973
CA -21.159 -1.16082 85.2326
CA -30.7852 9.52633 57.8044
CA -14.6302 7.84997 45.6004
CA -24.0362 -13.5824 89.0442
CA -32.7015 24.9841 76.5089
CA -14.2615 21.1086 21.8996
CA -22.4955 7.13901 82.4819
CA -27.4898 -19.2546 60.346
CA -18.1885 16.0049 36.143
CA -34.1368 10.1514 43.1727
CA -35.3288 2.17849 46.8225
CA -24.1147 11.2109 38.152
CA -8.74711 23.6938 12.1042
CA -30.2547 22.3195 39.8738
CA -20.1471 3.78469 76.0035
CA -29.7308 23.8604 75.2631
CA -28.0265 -10.298 55.6509
CA -28.5882 20.9786 62.378
CA -38.7609 -4.30535 66.6135
CA -27.2819 6.60771 45.384
CA -36.7152 -2.11343 48.2416
CA -18.9629 26.7 74.9444
CA -10.8905 32.2659 17.9056
CA -18.7066 20.4167 64.5269
CA -19.8615 6.94934 62.9706
CA -18.8562 7.52601 48.1412
CA -20.2202 23.1546 18.8433
CA -13.7299 17.1836 7.44474
CA -10.4042 17.5308 38.1187
CA -17.9148 17.4088 34.3076
CA -18.6153 -0.664355 63.6048
CA -39.0285 -6.69614 43.544
CA -46.9571 -8.17408 34.8318
CA -31.9431 2.28115 69.4887
CA -36.5565 -3.78476 59.3863
CA -10.7827 18.1803 46.0713
CA -24.0563 6.48807 80.3956
CA -43.6047 -4.72985 35.1646
CA -45.805 2.336 44.5722
CA -33.9765 24.0971 37.2851
CA -14.8894 20.2124 49.9382
CA -28.4606 -23.1526 49.2003
CA -7.25992 -6.81499 64.7364
CA -41.447 -3.39805 62.0304
CA -31.5218 29.9873 48.0033
CA -25.7967 -7.0488 71.8594
CA -26.5543 5.99777 62.005
CA -12.2758 18.3672 15.7154
CA -22.4706 1.18729 84.114
CA -24.6147 -18.0989 69.7504
CA -31.8992 9.60172 78.279
CA -21.4701 16.8112 64.5818
CA -19.4914 15.5162 21.0021
CA -25.9956 4.84707 51.0509
CA -42.8913 6.41799 47.9262
CA -33.1892 26.193 48.75
CA -33.1448 -5.9337 54.4889
CA -31.935 15.1259 63.9356
CA -19.2125 20.5079 62.5174
CA -20.13 10.4624 56.2944
CA -27.2898 20.59 17.8927
CA -23.0956 25.5482 65.2946
CA -17.3898 19.169 61.2602
CA -18.0094 -5.83476 58.1598
CA -29.6501 -21.1463 60.2348
CA -27.2145 -2.54428 46.0734
CA -25.1041 14.0905 51.7267
CA -18.3905 21.3632 74.6126
CA -21.4495 -7.12863 53.4399
CA -35.3469 9.11173 61.8518
CA -13.16 22.8142 58.1621
CA -21.2199 -3.70572 61.2763
CA -20.593 -7.3185 56.0888
CA -21.6454 -21.1916 59.8296
CA -2.41882 20.8742 20.0158
CA -20.1562 -5.74084 90.4182
CA -31.9409 -0.462154 71.2972
CA -20.5373 -13.887 84.7551
CA -6.18641 2.50432 62.2513
CA -39.1514 -5.15412 62.7598
CA -16.4623 -6.121 56.5836
CA -18.2346 -1.94904 62.3813
CA -24.2388 -13.107 93.4093
CA -17.4263 16.8391 63.3291
CA -10.4175 22.0637 24.1303
CA -7.6818 17.9686 54.5181
CA 1.93055 -1.34989 49.0101
CA -18.2283 20.8007 59.615
CA -16.9089 24.0068 50.9224
CA -12.3517 -10.2334 76.349
CA -23.6263 -13.7943 71.8556
CA -14.5938 1.52669 46.0939
CA -41.1044 17.4597 61.6137
CA -10.0566 21.8336 17.7973
CA -22.5637 19.822 16.8132
CA -35.3981 24.9932 36.2381
CA -25.1474 -14.5056 68.29
CA -22.6691 -16.2436 85.1403
CA -26.261 10.574 41.1547
CA -21.2626 -4.67649 42.673
CA -16.4657 9.70563 13.4226
CA -43.0237 13.7404 61.6564
CA -38.9695 -13.3368 47.0731
CA -5.95994 16.0606 14.0541
CA -14.8216 -9.65611 61.5472
CA -24.2284 17.19 77.8607
CA -22.9551 -10.7364 61.2959
CA -18.5305 -3.82574 73.9934
CA -33.0207 20.7519 41.18
CA 4.70229 -8.71368 49.3049
CA -23.0185 -2.44529 85.0477
CA -27.6924 16.1603 48.6672
CA -18.3086 14.0601 53.6752
CA -6.30397 2.71668 65.7797
CA -22.0484 -13.7447 74.3994
CA -27.404 18.1287 38.0075
CA -12.6771 33.8996 18.2732
CA -22.1273 0.229755 42.1919
CA -43.1314 6.62981 43.8352
CA -11.8117 23.8086 17.0746
CA -22.5063 28.8258 80.2407
CA -37.3796 -4.99254 43.6097
CA -20.492 18.002 57.5441
CA -17.5368 -5.35466 46.0205
CA -20.4354 25.4948 75.3317
CA -23.2903 -1.64666 62.0402
CA -8.57826 3.67064 60.4716
CA -17.8953 2.38665 47.7676
CA -18.8254 -8.36027 40.5921
CA -11.9284 25.5412 55.0318
CA -25.6545 20.9666 63.3754
CA -34.2537 27.7986 45.1635
CA 2.08083 22.3978 19.0521
CA -17.2431 0.865141 41.3524
CA -33.0073 -11.8506 47.5568
CA -38.2112 14.726 58.2997
CA -35.9173 1.36938 48.6763
CA -21.6146 -23.1186 59.6253
CA -26.0497 -1.93404 61.2791
CA -34.6131 16.2304 44.2759
CA -6.40666 22.3211 13.2883
CA -40.3807 -5.93414 60.8095
CA -5.45726 26.071 46.9346
CA -0.928902 -9.2575 60.1522
CA -3.18781 13.9907 9.6825
CA -18.2765 22.4373 66.3996
CA -19.9841 6.0285 66.7206
CA -40.0245 22.6404 74.892
CA -31.6771 31.644 44.0904
CA -25.6961 -7.98861 45.2936
CA -39.2507 -11.3493 40.7157
CA 0.112588 0.683303 65.0204
CA -26.5964 -4.11576 81.5806
CA -12.3642 14.1689 11.1573
CA -2.74678 23.3444 15.1865
CA -18.3847 -2.60258 88.242
CA -1.46687 27.7294 50.8874
CA -38.2995 6.52017 49.471
CA -11.3196 -0.797228 67.16
CA -44.7359 12.8314 62.6297
CA -24.1551 22.6784 65.9563
CA -7.6105 33.6456 19.0542
CA -27.3734 21.1574 60.5298
CA -13.052 -7.03522 68.7124
CA -34.295 7.04165 59.5473
CA -20.0055 -3.46217 67.6354
CA -33.5404 -5.17019 42.4527
CA -17.8735 19.4486 56.3607
CA -22.6142 20.4792 33.6197
CA -39.5465 -5.44062 69.8453
CA -29.644 26.8581 73.6447
CA -21.8422 9.22146 44.1553
CA -12.3763 -6.23748 43.1663
CA -42.1665 -2.4848 67.1114
CA -7.80034 26.2014 46.8578
CA -39.3615 10.7458 50.3271
CA -32.4856 21.3981 42.8775
CA -12.9737 -8.14232 75.9007
CA -11.2361 31.6956 21.1654
CA -24.0296 -13.9636 70.0092
CA -4.14125 19.8628 13.3411
CA -9.91142 27.9937 20.035
CA -18.3099 1.50017 64.9491
CA -16.712 11.6263 13.8196
CA -24.4865 -23.9391 51.9236
CA -8.7903 27.4756 18.678
CA -20.7605 -5.79335 79.4706
CA -19.1926 -6.42772 61.8522
CA -35.9929 4.52764 58.5962
CA -20.3478 -17.1882 75.2795
CA -34.6836 14.5532 58.4966
CA -40.4266 -7.54642 44.4462
CA -39.1944 -3.98418 38.3299
CA -17.9202 14.3329 17.5628
CA -21.0345 15.9292 34.2201
CA -23.9332 -22.5168 57.4682
CA -0.720284 -14.0357 55.7044
CA -36.7565 -5.10343 63.4651
CA 3.38538 -12.7371 55.0251
CA -39.7881 -8.20672 42.7129
CA -24.7818 11.9669 53.3664
CA -19.9635 6.21021 45.2953
CA -21.6624 27.3834 72.9012
CA -26.6358 18.3711 41.8081
CA -44.0279 -2.29348 66.9903
CA -36.7529 3.4389 57.2828
CA -25.3474 -9.78257 90.5106
CA -14.8694 2.99914 55.5422
CA -14.4009 23.119 49.8875
CA -28.7056 18.5757 43.8211
CA -20.3531 3.80353 72.967
CA -44.4043 -5.22773 66.2954
CA -18.726 -5.87899 49.1497
CA -22.2597 3.80693 54.3203
CA -13.4145 14.8142 8.94764
CA -38.209 17.8489 56.3294
CA -25.0597 -6.4592 79.3213
CA -18.7129 -6.189 88.432
CA -33.2955 0.954641 50.536
CA -26.9128 -4.3724 63.5478
CA -38.0067 6.91135 86.849
CA -5.27944 15.4816 17.0953
CA -43.35 4.4346 43.6579
CA -11.6542 25.2262 20.4504
CA -18.8732 7.98498 75.0237
CA -25.9665 7.29476 63.7682
CA -19.6896 4.68207 65.5386
CA -42.2569 -3.27924 34.7987
CA -21.3453 10.9411 45.8722
CA 3.94474 -1.32505 48.1109
CA -4.49106 0.457035 59.7778
CA -17.5834 14.0817 19.6004
CA -10.1365 -4.73083 66.4087
CA -37.9499 -14.2227 49.3346
CA -46.157 -3.0481 38.8698
CA -21.8394 7.28037 79.6589
CA -13.3811 12.0959 53.5514
CA -27.9772 -11.3997 64.2591
CA -6.70002 -7.93473 77.2766
CA -13.4548 16.3364 38.2979
CA -18.998 -0.872419 87.4373
CA -17.6167 -10.3616 78.1948
CA -13.9062 -8.0025 46.148
CA 2.82198 -4.39871 47.5376
CA -10.7189 17.2124 41.7697
CA -14.7628 0.558209 63.7513
CA -22.4597 -2.51343 79.9296
CA -20.6346 -16.103 91.536
CA -25.2942 -5.43425 68.2378
CA -15.731 -8.71768 59.1162
CA -22.8492 -10.0777 73.193
CA -21.0831 -3.82476 47.4982
CA -20.261 -14.6843 61.6382
CA 7.76193 -7.91122 52.6226
CA -45.8288 12.9315 65.0614
CA -15.4234 13.0401 56.7202
CA -25.5615 6.13767 60.1187
CA -17.2406 20.1429 72.3894
CA -2.91427 28.8617 50.0746
CA -23.4994 -0.617683 45.6949
CA -27.8123 7.03619 72.4815
CA -29.6653 28.4592 43.1399
CA -32.514 -0.775607 47.1872
CA -22.1847 3.86828 82.56
CA -22.4983 6.64207 71.0458
CA -43.8312 -5.10011 55.1958
CA -21.9829 -5.5965 78.0406
CA -19.6637 -7.80795 49.056
CA -11.7754 -2.1185 77.9053
CA -29.1502 22.8191 60.3911
CA -13.5251 -3.8293 45.0776
CA -33.643 13.8608 56.7055
CA -20.4214 25.7577 67.5326
CA -16.4813 10.6067 46.6647
CA -42.3399 -11.8968 70.0295
CA -36.4342 -11.5213 44.9028
CA -41.8823 -2.63495 37.7319
CA -30.9846 22.9956 76.4952
CA -42.0547 19.3468 75.9255
CA -19.4575 -7.91247 93.448
CA -24.6733 18.409 20.4529
CA -51.7191 3.8375 39.451
CA -16.8616 -1.50073 67.8888
CA -28.4958 18.3802 66.4568
CA -21.2462 -6.85652 35.8507
CA -16.9521 1.98198 75.4038
CA -34.3483 16.5597 58.3131
CA -33.2075 26.4834 41.3756
CA -38.8456 22.6263 71.1706
CA 1.30026 -9.88246 47.2663
CA -12.0458 21.5782 49.3218
CA -18.6515 14.5008 26.7768
CA -31.3599 14.1068 53.8636
CA -3.58078 -5.39768 62.9093
CA -30.4198 31.8172 47.5546
CA -32.8357 6.16005 68.1065
CA -26.6264 20.8121 41.519
CA -35.6916 -14.975 39.8917
CA -40.3586 25.3341 70.3103
CA -21.8783 -10.2777 69.0856
CA -26.3862 17.5681 62.4263
CA -11.0568 20.6787 42.1053
CA -26.3934 -24.7739 55.8812
CA -32.3979 -3.60269 54.0029
CA -24.6072 -2.95602 45.2869
CA -7.55931 -7.3797 71.2618
CA -37.4236 8.98282 55.6445
CA -37.2147 9.62544 82.3498
CA -35.2191 -7.38079 55.8632
CA -21.6198 -3.11468 71.3556
CA -28.6644 8.24465 65.2754
CA -17.4458 11.1378 43.5501
CA -21.5858 15.2773 19.1454
CA -20.8364 -1.05226 55.1358
CA -17.8327 -8.58477 53.5507
CA -27.2474 -21.4779 59.2299
CA -26.4909 -24.0393 48.231
CA -23.3565 7.30213 72.6083
CA -15.8863 20.7866 16.1609
CA -9.04454 29.9112 19.8461
CA -20.9376 25.1756 18.4919
CA -31.9806 23.8137 73.1344
CA 3.71367 -3.02109 43.8036
CA -10.0158 24.0938 19.0004
CA -16.5855 1.24434 54.6277
CA -27.5973 -10.7841 61.2892
CA -31.2585 -6.87997 64.167
CA -17.2121 21.616 50.8361
CA -21.3353 25.0703 35.5115
CA -23.4658 21.9307 19.2679
CA -37.3295 6.0163 58.9587
CA -14.9452 -13.9918 74.5114
CA -16.719 18.269 30.7313
CA -29.0759 -10.4795 90.0541
CA -22.2026 -8.68871 94.0138
CA -18.8019 13.5691 51.6808
CA -13.3805 -15.1183 35.3597
CA -14.9175 26.0354 49.6123
CA -12.7524 3.04877 64.3617
CA -22.5533 -6.36502 75.9441
CA -26.1764 4.23539 54.8942
CA -34.0833 -9.84082 60.5749
CA -47.17 3.46384 40.8868
CA -17.4745 14.8341 13.8801
CA -33.8084 19.8126 75.7827
CA -20.6677 -10.9975 61.0377
CA -25.492 -16.2145 59.9501
CA -22.3266 -6.5943 68.5592
CA -19.1974 25.5634 15.0058
CA -40.5847 -2.81877 49.6872
CA -30.6614 25.5034 57.5121
CA -30.8456 12.7613 59.6848
CA -30.3619 6.19416 41.977
CA -29.9734 -18.4731 48.9239
CA -44.4871 -9.35976 68.6701
CA -35.4252 9.65288 79.6686
CA -30.8985 23.8297 36.4647
CA -23.7254 8.91406 51.7482
CA -11.6478 19.2656 71.2181
CA -14.6354 19.1979 21.4881
CA -20.5381 -5.52884 68.1313
CA -25.0753 5.43569 55.7444
CA -33.9586 -6.22532 65.8537
CA -14.7614 -2.90832 47.4565
CA 1.40887 -0.492477 44.6882
CA -17.0392 -8.06884 75.4313
CA -8.23727 26.4553 17.0763
CA -14.5058 26.8059 56.4606
CA -17.0387 13.68 12.14
CA -40.4518 -5.57268 58.3742
CA -21.7902 -13.0952 62.7788
CA -15.3232 15.9635 24.5405
CA -9.792 26.6868 26.1443
CA -15.9273 8.51741 58.0711
CA -10.9192 -4.35457 78.2558
CA -24.7012 13.7092 17.4832
CA -26.4517 -6.31439 59.7135
CA -23.1686 17.4978 42.8503
CA -31.0937 27.555 75.6571
CA -13.7032 18.8202 31.6389
CA -31.9769 25.3922 47.49
CA -13.9212 3.97225 56.9235
CA -32.4451 -9.66493 66.4175
CA -20.1486 27.8588 78.8552
CA -20.9313 24.8156 83.0781
CA -29.8024 19.5943 63.0053
CA -7.27977 16.2646 20.0394
CA -23.2401 13.289 36.2413
CA -6.74507 25.1495 18.5519
CA -10.6044 23.2093 14.3406
CA -45.2923 20.4949 72.3481
CA 2.39573 -11.3457 51.1624
CA -22.5033 -20.6995 51.6026
CA -18.3581 -2.71594 45.9946
CA -18.9653 15.4591 50.9384
CA -15.6627 6.07252 61.295
CA -37.1504 -5.08275 65.262
CA -21.1122 -10.77 92.8776
CA -13.4583 19.7925 71.8286
CA -20.0692 -0.792052 81.251
CA -12.4623 14.7595 41.1542
CA -16.2264 15.9938 11.8519
CA -25.9337 28.9631 41.1034
CA -19.8277 23.4142 48.3218
CA -31.0478 17.5403 67.1436
CA -19.2785 -4.9937 70.0913
CA -13.3372 14.6387 30.3361
CA -22.7448 17.1493 39.7185
CA -48.1543 -2.13676 41.9312
CA -23.0126 8.36466 85.4314
CA -12.3631 17.8078 18.6391
CA -3.37447 5.31341 68.3935
CA -31.3849 16.73 71.3583
CA -42.0512 -2.76911 48.3144
CA -16.339 -12.3116 37.4655
CA -19.3233 -10.11 95.0455
CA -21.3485 -14.7949 58.6348
CA -14.8568 2.24338 59.9683
CA -11.2716 -7.50792 76.3907
CA -12.9896 19.2995 8.88359
CA -17.175 -2.54477 44.4046
CA -8.16196 20.8945 19.6395
CA -24.0844 -8.4978 49.7435
CA -11.3097 22.1866 19.059
CA -28.2652 7.30053 56.2585
CA -33.489 13.3273 75.1266
CA -18.4418 6.50026 68.983
CA -26.6457 -1.87657 63.088
CA -27.4088 24.2299 74.9043
CA -2.3736 -9.77309 57.9603
CA -28.3527 -4.79571 47.6601
CA -21.8609 23.2538 70.7772
CA -25.0149 -6.81923 47.9218
CA -0.73711 -1.74426 60.2982
CA -34.8067 10.4166 85.8882
CA -23.4185 7.56008 59.8043
CA -16.2913 18.1136 25.8769
CA -8.78215 24.7758 46.172
CA -26.8958 -17.5291 58.3562
CA -34.7515 17.2471 78.0961
CA -21.959 8.19002 64.5276
CA -6.34093 -7.35054 67.6213
CA -17.9144 2.00821 44.1603
CA -19.6314 -6.84984 91.7374
CA -4.4611 0.380651 62.779
CA -19.029 -10.7221 57.5397
CA -10.9673 20.5952 6.13258
CA -36.6008 18.285 60.0852
CA -24.2805 -8.22531 69.2842
CA -12.5879 -6.01044 66.0819
