489

CA -45.1065 10.3571 62.6106
CA -18.3241 15.7947 15.7952
CA -44.4825 -3.32927 51.6204
CA -23.7715 -3.15126 44.5017
CA -19.0235 1.57257 46.1634
CA -17.2468 17.3835 50.7879
CA -36.1867 9.79373 57.3336
CA -28.7817 -4.39268 79.4881
CA -20.8813 23.2437 15.1548
CA -38.1019 -4.48924 40.7536
CA -11.6343 22.1405 16.392
CA -35.0493 -5.43453 44.3245
CA -27.5273 6.7433 50.0608
CA -30.7653 20.5319 65.7935
CA -7.25405 31.0549 18.2515
CA -17.2552 17.2364 48.863
CA -19.0968 16.2202 32.0344
CA -44.1774 5.67373 45.6684
CA -31.2575 -8.4667 79.2453
CA -11.4363 -9.4642 59.9459
CA -27.3858 21.0225 79.4134
CA -35.4523 17.2307 45.7059
CA -42.238 -7.31165 52.0157
CA -15.2242 10.3083 57.7146
CA -15.722 10.1185 55.2802
CA -35.9982 6.14824 61.4237
CA -29.1617 -0.684504 72.1552
CA -25.0002 18.358 79.8943
CA -24.087 10.8946 74.1605
CA -15.7682 -5.41064 46.6443
CA -13.9869 -16.2584 65.7767
CA -40.2035 -3.30746 68.0574
CA -19.4551 17.7714 21.5584
CA -14.7765 -1.66987 87.4705
CA -18.701 -2.08893 90.0266
CA -15.3203 18.1345 20.6271
CA -21.8751 11.2404 71.1282
CA -13.0603 12.59 48.5945
CA -21.8764 11.2853 15.6537
CA -21.159 -1.16082 85.2326
CA -18.9246 0.871521 60.1141
CA -14.6302 7.84997 45.6004
CA -24.0362 -13.5824 89.0442
CA -32.7015 24.9841 76.5089
CA -7.0198 21.6663 25.2335
CA -22.4955 7.13901 82.4819
CA -27.9239 -2.96818 47.9715
CA -50.1515 3.97798 51.2837
CA -34.1368 10.1514 43.1727
CA -35.3288 2.17849 46.8225
CA -2.38489 23.9752 18.364
CA -8.74711 23.6938 12.1042
CA -26.3868 -24.3591 53.4189
CA -20.1471 3.78469 76.0035
CA -35.2408 19.4581 58.5701
CA -31.2041 10.3885 63.9293
CA -41.2682 13.7518 62.9543
CA -38.7609 -4.30535 66.6135
CA -27.2819 6.60771 45.384
CA -16.484 18.9618 22.676
CA -31.1452 18.6646 69.2029
CA -27.6864 1.95504 51.3365
CA -34.0458 17.9149 63.1905
CA -40.2304 17.6744 40.1337
CA -37.4144 18.4422 41.602
CA -34.9871 18.703 39.594
CA -13.7299 17.1836 7.44474
CA -10.4042 17.5308 38.1187
CA -48.7199 4.00767 47.0489
CA -18.6153 -0.664355 63.6048
CA -32.1713 24.8419 58.3016
CA -21.5374 3.18446 80.7802
CA -31.9431 2.28115 69.4887
CA -37.362 13.6312 73.1752
CA -12.5666 -2.03244 65.957
CA -18.6108 -13.215 35.7695
CA -17.5809 -4.8275 86.358
CA -43.0785 -10.8844 42.2506
CA -23.2883 7.39466 39.123
CA -14.8894 20.2124 49.9382
CA -28.4606 -23.1526 49.2003
CA -7.25992 -6.81499 64.7364
CA -31.4979 9.97945 41.7501
CA -11.0593 22.312 68.6212
CA -25.7967 -7.0488 71.8594
CA -26.5543 5.99777 62.005
CA -19.3806 7.08162 46.9614
CA -32.2321 17.7615 75.6018
CA -24.6147 -18.0989 69.7504
CA -39.286 1.08856 68.1655
CA -24.3238 -3.02654 76.7361
CA -34.7056 21.6846 35.187
CA -8.64858 18.3164 22.4112
CA -42.8913 6.41799 47.9262
CA -28.8863 -15.7354 66.4303
CA -33.1448 -5.9337 54.4889
CA -31.935 15.1259 63.9356
CA -9.04386 20.4245 43.7346
CA -20.7328 -10.0323 39.1078
CA -27.2898 20.59 17.8927
CA -26.569 15.9075 37.6275
CA -23.393 -16.232 87.8463
CA -18.0094 -5.83476 58.1598
CA -38.7233 -1.79907 40.4392
CA -27.2145 -2.54428 46.0734
CA -25.1041 14.0905 51.7267
CA -18.3905 21.3632 74.6126
CA -10.5576 -2.82741 65.3528
CA -40.2667 -4.67592 58.5595
CA -13.16 22.8142 58.1621
CA -3.5245 -8.79891 67.1799
CA -34.3333 19.0141 76.5324
CA -17.5508 -5.45512 76.2896
CA -29.0624 24.7108 42.0083
CA -24.693 -9.77194 79.1551
CA -33.14 -6.45142 43.0106
CA -20.5373 -13.887 84.7551
CA -38.9651 17.3709 61.7371
CA -39.1514 -5.15412 62.7598
CA -16.4623 -6.121 56.5836
CA -22.6657 -3.71887 72.566
CA -18.0398 11.0789 50.6638
CA -21.9854 -14.7061 70.1703
CA -10.4175 22.0637 24.1303
CA -21.4907 -3.48855 70.7922
CA -13.7855 -7.60009 54.9412
CA -0.121591 24.3909 47.3118
CA -16.9089 24.0068 50.9224
CA -27.3383 7.58233 66.3834
CA -23.6263 -13.7943 71.8556
CA -29.6821 24.1912 70.2977
CA -21.4903 -19.4834 83.4974
CA -10.0566 21.8336 17.7973
CA -22.5637 19.822 16.8132
CA -22.8127 22.1507 73.3667
CA -18.8067 4.2475 57.1884
CA -22.6691 -16.2436 85.1403
CA -35.3253 -7.2904 59.1728
CA -21.2626 -4.67649 42.673
CA -42.6492 -1.45865 70.0164
CA -43.0237 13.7404 61.6564
CA -38.9695 -13.3368 47.0731
CA -5.95994 16.0606 14.0541
CA -26.4593 -7.74007 51.8115
CA -19.6264 -13.5491 94.6641
CA -23.7231 10.0507 42.6252
CA -12.0028 -5.9738 64.1686
CA -29.1638 7.07066 68.0683
CA 4.70229 -8.71368 49.3049
CA -23.1699 22.5342 16.414
CA -13.2072 19.3818 52.8516
CA -27.9946 12.5751 34.628
CA -25.1613 27.096 80.7611
CA -22.0484 -13.7447 74.3994
CA -28.9845 -19.9004 57.7731
CA -12.6771 33.8996 18.2732
CA -19.7247 28.6677 73.7927
CA -16.8127 -4.06971 90.6054
CA -11.3761 -6.85147 67.6665
CA -27.5823 0.370944 62.8612
CA -5.05282 4.13945 66.4627
CA -20.5811 12.9353 54.5855
CA -14.1106 8.83882 52.7975
CA -20.4354 25.4948 75.3317
CA -31.2552 9.88733 60.7197
CA -8.57826 3.67064 60.4716
CA -17.8953 2.38665 47.7676
CA -18.8254 -8.36027 40.5921
CA -11.9284 25.5412 55.0318
CA -25.6545 20.9666 63.3754
CA -23.8442 -9.92783 51.0699
CA -12.2368 -4.56639 50.4269
CA -17.2431 0.865141 41.3524
CA -20.0996 0.613592 38.3272
CA -15.9278 19.9331 53.7795
CA -35.9173 1.36938 48.6763
CA -38.7709 1.41943 72.5577
CA -26.0497 -1.93404 61.2791
CA -34.6131 16.2304 44.2759
CA -6.40666 22.3211 13.2883
CA -19.0374 3.21476 91.3448
CA -5.45726 26.071 46.9346
CA -0.928902 -9.2575 60.1522
CA -3.18781 13.9907 9.6825
CA -18.2765 22.4373 66.3996
CA -20.2742 2.73922 55.5013
CA -23.8879 6.927 24.9443
CA -21.9126 12.5287 41.6104
CA -38.0389 13.1359 79.6148
CA -39.2507 -11.3493 40.7157
CA -7.90164 1.30676 64.6036
CA -22.1863 -1.42727 56.2975
CA -20.9304 5.46668 80.0956
CA -2.74678 23.3444 15.1865
CA -40.8755 -0.847574 70.2763
CA -1.46687 27.7294 50.8874
CA -14.899 19.7862 68.347
CA -12.0199 23.4432 56.0696
CA -44.7359 12.8314 62.6297
CA -22.767 7.63529 62.3001
CA -7.6105 33.6456 19.0542
CA -27.3734 21.1574 60.5298
CA -13.052 -7.03522 68.7124
CA -10.5432 17.9834 66.4126
CA -19.319 -2.75901 58.571
CA -27.1684 -5.52152 65.7916
CA -17.8735 19.4486 56.3607
CA -26.2609 22.6693 78.6594
CA -39.2054 3.05992 48.5399
CA 4.21609 -9.10648 52.1683
CA -21.8422 9.22146 44.1553
CA -32.0888 21.7391 59.0039
CA -30.0765 -3.8339 66.3294
CA -7.80034 26.2014 46.8578
CA -39.3615 10.7458 50.3271
CA -32.4856 21.3981 42.8775
CA -12.9737 -8.14232 75.9007
CA -14.392 16.778 49.5572
CA -33.7848 -1.88128 72.6984
CA -38.6896 13.1618 49.4447
CA -25.2534 -4.54485 71.0501
CA -18.3099 1.50017 64.9491
CA -16.712 11.6263 13.8196
CA -24.4865 -23.9391 51.9236
CA -8.7903 27.4756 18.678
CA -28.8042 -17.6204 67.6021
CA -14.0924 32.336 18.8462
CA -21.8444 -5.10488 55.0539
CA -20.3478 -17.1882 75.2795
CA -18.5236 8.89018 11.83
CA -40.4266 -7.54642 44.4462
CA -21.2314 -2.84135 74.283
CA -17.9202 14.3329 17.5628
CA -21.0345 15.9292 34.2201
CA -23.9332 -22.5168 57.4682
CA -0.720284 -14.0357 55.7044
CA -3.3342 19.6045 18.2919
CA 3.38538 -12.7371 55.0251
CA -13.7335 -0.187791 76.4302
CA -24.7818 11.9669 53.3664
CA -13.5653 22.1379 15.6547
CA -12.0724 20.224 40.782
CA -26.6358 18.3711 41.8081
CA -44.0279 -2.29348 66.9903
CA -43.2594 -3.55984 68.1006
CA -9.48653 33.2833 18.5276
CA -33.2906 18.0686 50.0608
CA -19.4563 9.70826 55.7603
CA -28.7056 18.5757 43.8211
CA -44.7912 -10.6338 65.2409
CA -22.8693 20.72 14.5066
CA -28.6475 18.1606 48.334
CA -22.2597 3.80693 54.3203
CA -13.4145 14.8142 8.94764
CA -15.2912 3.22717 39.4282
CA -21.9326 9.21371 59.9553
CA -30.2912 22.6728 44.8932
CA -37.7333 16.428 75.2985
CA -0.562859 29.8498 54.0927
CA -23.7446 11.9398 61.622
CA -5.27944 15.4816 17.0953
CA -10.6278 17.2126 6.87738
CA -28.5238 10.3878 75.6594
CA -18.8732 7.98498 75.0237
CA -25.9665 7.29476 63.7682
CA -19.6896 4.68207 65.5386
CA -36.676 9.28584 61.7385
CA -21.3453 10.9411 45.8722
CA 3.94474 -1.32505 48.1109
CA -4.49106 0.457035 59.7778
CA -38.8157 0.357385 46.9952
CA -10.1365 -4.73083 66.4087
CA -37.9499 -14.2227 49.3346
CA -46.157 -3.0481 38.8698
CA -29.0046 24.0386 75.6371
CA -41.8835 -4.63421 57.3019
CA -11.894 18.6848 13.5643
CA -45.4808 4.31729 44.3376
CA -11.9895 21.2601 51.9948
CA -12.7176 19.7738 59.0037
CA -17.6167 -10.3616 78.1948
CA -20.5107 6.95237 23.5716
CA 2.82198 -4.39871 47.5376
CA -46.0194 0.0375933 43.3851
CA -31.3368 15.6276 61.6245
CA -32.6521 23.0323 35.8417
CA -32.188 -2.72983 71.6302
CA -25.2942 -5.43425 68.2378
CA -17.0338 3.20094 73.5493
CA -22.1692 19.0817 65.5773
CA -32.1907 26.0862 73.11
CA -30.2772 7.3178 49.9003
CA -29.6748 2.40263 42.128
CA -45.8288 12.9315 65.0614
CA -15.587 5.18112 68.5752
CA -19.9283 20.3562 49.471
CA -17.2406 20.1429 72.3894
CA -45.3644 15.564 62.5128
CA -30.8585 31.0963 49.5081
CA -38.4219 8.9514 84.0141
CA -29.6653 28.4592 43.1399
CA -24.2756 6.22062 78.2167
CA -22.1847 3.86828 82.56
CA -22.4983 6.64207 71.0458
CA -30.6183 17.3944 74.5599
CA -21.9829 -5.5965 78.0406
CA -21.3011 25.454 46.7408
CA -18.0383 -6.82664 50.1611
CA -29.1502 22.8191 60.3911
CA -42.4983 5.30337 46.2352
CA -5.66941 4.66885 64.5452
CA -20.4214 25.7577 67.5326
CA -5.89024 21.8823 21.2561
CA -39.5357 -5.3532 49.2898
CA -36.4342 -11.5213 44.9028
CA -21.669 29.2849 78.6893
CA -35.1439 19.7871 37.9037
CA -42.0547 19.3468 75.9255
CA -21.084 20.4327 70.438
CA -24.6733 18.409 20.4529
CA -13.7861 -0.85544 44.0468
CA -17.5852 14.9733 21.9894
CA -28.4958 18.3802 66.4568
CA -21.2462 -6.85652 35.8507
CA -42.8575 9.30235 46.1433
CA -34.3483 16.5597 58.3131
CA -28.5264 -6.95727 49.3511
CA -24.9706 17.048 64.7318
CA -11.5362 29.052 52.3367
CA -12.0458 21.5782 49.3218
CA -18.6515 14.5008 26.7768
CA -31.3599 14.1068 53.8636
CA -3.58078 -5.39768 62.9093
CA -30.4198 31.8172 47.5546
CA -37.8397 13.7897 46.8086
CA -44.5257 15.4416 57.7127
CA -35.6916 -14.975 39.8917
CA -17.9625 0.701083 89.4282
CA -21.8783 -10.2777 69.0856
CA -26.3862 17.5681 62.4263
CA -20.9102 0.722654 54.6423
CA -0.207289 -12.3079 66.5351
CA -32.8432 -19.4336 61.0629
CA 3.1907 13.4006 7.58866
CA -32.8854 -7.75772 55.5613
CA -13.85 13.4938 7.76733
CA -40.3979 11.066 53.2566
CA -35.2191 -7.38079 55.8632
CA -28.1038 -7.37638 64.7196
CA -11.8116 16.2137 9.08595
CA -17.4458 11.1378 43.5501
CA -13.4602 31.519 16.8464
CA -20.8364 -1.05226 55.1358
CA -36.3405 11.7152 52.1643
CA -12.3161 -6.89936 45.4959
CA -26.4909 -24.0393 48.231
CA -15.7114 -5.12663 58.0484
CA -15.8863 20.7866 16.1609
CA -9.04454 29.9112 19.8461
CA -34.4867 22.1104 40.1382
CA -31.9806 23.8137 73.1344
CA -20.386 -9.89382 59.4608
CA -10.0158 24.0938 19.0004
CA -5.60383 2.71919 61.5023
CA -5.71897 18.9064 12.6771
CA -35.5543 10.3324 77.9443
CA -17.2121 21.616 50.8361
CA -39.8389 -8.35312 70.1397
CA -23.4658 21.9307 19.2679
CA -37.3295 6.0163 58.9587
CA 4.18535 -11.7671 52.1
CA -16.719 18.269 30.7313
CA -24.4415 17.7198 18.6612
CA -39.5094 -3.71979 54.4647
CA -40.735 9.16905 53.612
CA -9.65634 -17.0739 65.1132
CA -14.9175 26.0354 49.6123
CA -46.2512 -6.62663 67.7405
CA -19.1549 11.1142 25.2658
CA -26.1764 4.23539 54.8942
CA -34.0833 -9.84082 60.5749
CA -47.17 3.46384 40.8868
CA -25.3937 -28.6491 55.5825
CA 6.46704 -10.5647 53.9391
CA -19.9727 -7.84955 59.3736
CA -17.7018 -1.64068 47.0761
CA -22.3266 -6.5943 68.5592
CA -19.1974 25.5634 15.0058
CA -40.5847 -2.81877 49.6872
CA -18.5519 -0.833837 91.5729
CA -30.8456 12.7613 59.6848
CA -30.3619 6.19416 41.977
CA -29.9734 -18.4731 48.9239
CA -22.4635 -8.01465 78.2773
CA -28.2749 -2.92357 64.8354
CA -0.526305 12.3635 6.99483
CA -23.7254 8.91406 51.7482
CA -27.1941 17.1488 14.2128
CA -14.3307 -7.38527 41.3309
CA -40.5215 0.892239 49.6676
CA -20.1109 21.4893 75.5679
CA -33.9586 -6.22532 65.8537
CA -14.7614 -2.90832 47.4565
CA -7.99717 4.51886 68.6803
CA -21.8675 12.0095 25.3112
CA -42.7213 -5.73994 49.9394
CA -15.4496 10.1365 59.6535
CA -17.0387 13.68 12.14
CA -10.3907 18.5494 54.6904
CA -21.7902 -13.0952 62.7788
CA -39.45 -4.88846 36.3215
CA -21.9857 21.2714 51.9297
CA -15.9273 8.51741 58.0711
CA -12.754 2.0926 59.272
CA -24.7012 13.7092 17.4832
CA -42.8501 -7.82789 41.9903
CA -15.6826 2.49606 49.4204
CA -34.8509 -3.00683 60.1082
CA -23.9028 16.7123 15.5515
CA -31.9769 25.3922 47.49
CA -13.9212 3.97225 56.9235
CA -24.2956 -0.407367 54.5215
CA -29.0955 8.15943 45.4983
CA -6.84441 4.42004 57.1773
CA -7.17244 21.6054 4.44982
CA -7.27977 16.2646 20.0394
CA -23.2401 13.289 36.2413
CA -25.5235 23.7693 82.4838
CA -12.8729 15.5338 35.7928
CA -19.9829 17.2833 47.773
CA 2.39573 -11.3457 51.1624
CA -24.5887 -2.52537 56.4907
CA -13.1589 -3.20428 49.0533
CA -18.9653 15.4591 50.9384
CA -28.3006 -5.20265 63.2861
CA -7.61941 -4.09342 62.8072
CA -21.1122 -10.77 92.8776
CA -18.4961 -0.931827 43.5019
CA -10.6563 20.2997 49.5972
CA -9.23795 -13.183 61.9063
CA -39.6494 -5.07993 51.3656
CA -22.836 27.5868 14.521
CA -19.8277 23.4142 48.3218
CA -37.1123 4.33929 50.0472
CA -19.2785 -4.9937 70.0913
CA -0.332632 -4.98011 65.3784
CA -16.0118 0.259782 58.6882
CA -38.8085 12.795 84.578
CA -33.8431 21.1825 75.5848
CA -12.3631 17.8078 18.6391
CA -13.7177 -5.14853 48.1526
CA -31.3849 16.73 71.3583
CA -22.7496 16.5376 39.3981
CA -30.2864 -2.56347 53.0845
CA -17.6948 7.48396 43.2941
CA -34.8614 6.70144 81.4387
CA -14.8568 2.24338 59.9683
CA -11.2716 -7.50792 76.3907
CA 0.52703 -6.42345 68.3308
CA -29.6214 19.3794 74.3928
CA -8.05439 -2.14625 58.9228
CA -22.5347 -14.9609 68.3621
CA -11.3097 22.1866 19.059
CA -7.25169 -2.81683 60.5828
CA -33.489 13.3273 75.1266
CA -18.4418 6.50026 68.983
CA -26.6457 -1.87657 63.088
CA -29.3719 -0.439154 46.9688
CA -2.3736 -9.77309 57.9603
CA -28.3527 -4.79571 47.6601
CA -26.7857 9.92548 57.4958
CA -25.0149 -6.81923 47.9218
CA -12.4018 -9.92669 74.1899
CA -34.8067 10.4166 85.8882
CA -23.4185 7.56008 59.8043
CA -30.0847 6.37301 37.6041
CA -8.78215 24.7758 46.172
CA -17.3295 9.15766 50.4096
CA -34.7515 17.2471 78.0961
CA -21.959 8.19002 64.5276
CA -25.3732 5.17624 42.3429
CA -28.2609 26.3566 77.4314
CA -19.6314 -6.84984 91.7374
CA -32.0235 -18.4858 63.6946
CA -19.029 -10.7221 57.5397
CA -10.9673 20.5952 6.13258
CA -13.2233 19.0104 15.3636
CA -33.0797 6.95969 57.5061
CA -12.5879 -6.01044 66.0819
