489

CA -33.7522 14.5903 28.9635
CA -15.9398 -7.14615 36.2964
CA -38.8604 -10.3747 40.6744
CA -23.7715 -3.15126 44.5017
CA -19.0235 1.57257 46.1634
CA -25.6251 13.7049 37.085
CA -38.2883 6.84447 65.9413
CA -21.4142 -6.18591 37.3759
CA -20.8813 23.2437 15.1548
CA -38.1019 -4.48924 40.7536
CA -30.9232 -2.63395 63.99
CA -11.8401 19.0543 47.5852
CA -27.5273 6.7433 50.0608
CA -30.7653 20.5319 65.7935
CA -25.0358 20.4343 53.9272
CA -14.1985 1.93616 40.007
CA -21.5331 16.9759 74.1187
CA -19.6158 -0.892602 88.8722
CA -17.9214 11.0302 60.8624
CA -24.2805 21.1663 40.9142
CA -7.47371 19.2883 16.9437
CA -39.0465 13.1772 75.2959
CA -42.238 -7.31165 52.0157
CA -15.2617 15.5253 10.6421
CA -29.5721 -13.3629 60.1026
CA -35.9982 6.14824 61.4237
CA -12.5011 -9.89479 44.4333
CA -38.3895 24.4927 38.35
CA -39.9871 7.53931 50.1666
CA -23.6422 -5.10869 91.2575
CA -1.92899 -6.26122 60.0589
CA -44.291 13.0903 53.5394
CA -45.4431 -3.4062 49.5519
CA -30.3367 7.27091 59.248
CA -15.0781 -0.132308 35.6579
CA -15.4979 -8.86845 45.347
CA -22.4544 11.5539 47.569
CA -35.6329 13.416 46.0156
CA -18.1581 1.34922 85.3488
CA -15.128 -3.84516 51.7536
CA -13.7511 21.7244 16.4954
CA -14.5049 14.0298 24.7892
CA -24.0362 -13.5824 89.0442
CA -32.7015 24.9841 76.5089
CA -45.3836 8.146 60.2897
CA -35.6516 0.193513 76.3129
CA -27.9239 -2.96818 47.9715
CA -31.653 12.3366 31.352
CA -16.0555 4.9483 49.8796
CA -16.4186 -13.328 36.2149
CA -2.38489 23.9752 18.364
CA -25.2847 8.57013 33.1394
CA -19.6197 -9.3243 72.8809
CA -32.8917 15.2682 73.4577
CA -28.0714 10.5647 45.0958
CA -34.6018 15.9432 73.9396
CA -26.9256 28.7491 80.3042
CA -21.9727 -5.39691 59.7652
CA -17.7093 -1.71883 80.8414
CA -28.1873 11.2032 39.0634
CA -16.0073 -3.08073 73.9695
CA -25.6442 15.7952 56.7724
CA -9.92261 -8.54018 55.1626
CA -5.35256 24.1001 54.7775
CA -28.9047 -16.0139 54.5066
CA -31.3931 24.2284 42.7814
CA -16.5362 10.0652 46.7028
CA -10.4042 17.5308 38.1187
CA -14.486 -1.65657 36.9329
CA -15.5571 26.5809 14.2582
CA -39.9862 17.907 76.8398
CA -34.3174 1.25857 62.9027
CA -21.9247 9.76358 41.3634
CA -16.5093 20.9119 12.4974
CA -19.813 -4.51383 66.9679
CA -18.6108 -13.215 35.7695
CA -17.96 22.7087 73.0506
CA -13.8062 12.35 5.62259
CA -38.7008 -11.2246 45.6416
CA -14.4275 -2.32102 41.3278
CA -28.4606 -23.1526 49.2003
CA -24.4058 -2.11999 37.9083
CA -25.4647 9.01482 41.7631
CA -30.3702 1.71398 67.3805
CA -30.9279 -17.8362 64.0076
CA -35.5405 17.8469 45.1261
CA -24.9533 -5.66613 72.9183
CA -32.9095 -2.0589 64.1157
CA -33.7351 16.7273 72.3477
CA -16.7804 3.66747 45.0522
CA -22.229 -12.3938 79.2869
CA -15.3668 -6.87178 54.062
CA -38.8263 20.3369 78.213
CA -21.9552 23.9837 47.5318
CA -11.348 21.6731 23.8317
CA -12.0615 -3.3132 47.4553
CA -17.0492 12.9235 33.5562
CA -31.1407 -0.346569 76.7188
CA -20.7328 -10.0323 39.1078
CA -22.9577 -7.83416 41.3786
CA -36.3916 10.9364 46.5927
CA -27.5263 1.02962 53.9857
CA -27.5993 17.4114 65.1477
CA -10.0391 17.7058 54.3038
CA -33.4774 16.1348 54.8916
CA -20.4208 24.865 70.2304
CA -30.9744 -16.9957 61.7045
CA -38.6324 16.173 41.9709
CA -25.8455 -26.2545 50.7921
CA -35.6623 14.7322 40.782
CA -3.5245 -8.79891 67.1799
CA -9.37493 20.6279 22.735
CA -44.6122 -4.30626 66.8575
CA -34.2804 1.68261 43.081
CA -17.8574 32.4655 79.5682
CA -9.48723 -4.42605 60.3302
CA -20.5373 -13.887 84.7551
CA -6.76838 24.9973 44.5842
CA -10.6443 40.6437 19.211
CA -12.674 -2.99475 36.6138
CA -46.807 -4.91462 52.1462
CA -22.8454 -6.15995 85.8481
CA -21.9854 -14.7061 70.1703
CA -23.6633 0.371632 89.749
CA -21.4907 -3.48855 70.7922
CA -46.7072 -8.46671 65.6051
CA -27.9742 -5.12208 58.0338
CA -40.6593 -5.82646 63.3951
CA -12.5275 -13.4602 34.6568
CA -37.7458 17.3156 71.3224
CA -19.4021 -1.77745 70.5826
CA -8.4904 42.6136 15.6964
CA -30.7314 10.7159 45.6487
CA -49.9447 6.38035 57.1005
CA -29.7946 9.2874 28.7058
CA -13.4715 -6.97899 43.1958
CA -9.08333 22.7717 14.3348
CA -31.0023 -16.8016 58.9749
CA -21.2626 -4.67649 42.673
CA -7.45554 5.92105 58.2937
CA -43.0237 13.7404 61.6564
CA -50.2097 12.298 67.5605
CA -5.95994 16.0606 14.0541
CA -23.2163 23.2781 80.973
CA -12.9045 -8.19074 39.0136
CA -15.1876 0.916161 71.9468
CA -12.0028 -5.9738 64.1686
CA -40.0595 -1.24144 48.8699
CA -19.4085 21.7128 72.6416
CA -13.1359 -5.4518 61.9653
CA -0.516349 -1.40586 62.2996
CA -27.9946 12.5751 34.628
CA -27.275 -12.4132 70.1774
CA -31.2279 16.5007 73.4773
CA -17.7978 0.646219 73.4475
CA -12.6771 33.8996 18.2732
CA -19.7247 28.6677 73.7927
CA -20.6882 -13.5984 74.0192
CA -23.3316 9.94691 10.8362
CA -7.44247 0.447673 62.2907
CA -46.0582 0.438078 47.2514
CA -17.2352 25.4459 63.7051
CA -35.7955 25.766 59.5933
CA -26.8594 18.6626 76.9658
CA -11.7472 -14.1385 64.1502
CA -8.57826 3.67064 60.4716
CA -44.3469 -4.87308 61.5467
CA -21.9016 -5.02536 69.3398
CA -29.9935 3.81451 46.4835
CA -21.7578 -1.49646 67.4371
CA -17.285 -16.7636 61.5634
CA -21.6318 22.7599 53.9916
CA -17.2431 0.865141 41.3524
CA -30.7484 -3.93747 70.8119
CA -12.7054 21.2233 20.0182
CA -21.2185 24.0936 51.1186
CA -17.6542 -10.5656 75.6189
CA -26.0497 -1.93404 61.2791
CA -34.4034 2.8699 50.2039
CA -23.9961 -15.5179 68.5948
CA -22.6668 27.138 14.6421
CA -5.45726 26.071 46.9346
CA -12.3197 16.0488 20.7694
CA -3.18781 13.9907 9.6825
CA -18.2765 22.4373 66.3996
CA -29.1564 5.95155 53.2516
CA -22.4027 19.0753 76.0116
CA -26.5454 -2.07124 74.7104
CA -2.62164 8.49616 57.9009
CA -34.5845 -7.32995 68.7872
CA -41.5772 13.5067 58.8071
CA -17.7604 -15.3749 32.0385
CA -32.1091 12.065 44.1959
CA -36.2035 25.3912 78.386
CA -38.5849 -7.88642 54.9817
CA -3.72325 14.5314 17.9614
CA -28.6542 16.6354 77.0972
CA -36.3063 2.63286 44.4041
CA -44.2187 11.3856 57.7293
CA -34.2575 5.55435 56.0541
CA -10.9189 29.4022 18.5304
CA -24.7229 -8.75276 89.8243
CA -20.3565 6.99339 76.4739
CA -44.1643 -3.72096 48.032
CA -45.8858 -3.1197 57.7736
CA -34.3716 -1.67767 43.9321
CA -4.11314 9.94171 56.9865
CA -22.3238 1.59157 83.537
CA -39.2054 3.05992 48.5399
CA -22.4646 -16.5285 68.6402
CA -23.4569 19.7599 49.6064
CA -14.2154 -0.846029 44.9837
CA -17.1642 7.90324 62.5381
CA -18.5171 0.541522 83.5793
CA -39.3615 10.7458 50.3271
CA -21.9525 -3.39544 44.1799
CA -22.8556 -5.50529 56.9125
CA -25.9422 7.60944 47.3078
CA -4.47916 -7.48059 58.8685
CA -12.4576 24.5404 18.283
CA -49.6923 8.95483 59.754
CA -19.896 -7.4118 51.2125
CA -19.1504 -8.16778 41.0251
CA -21.6682 -19.6871 60.1594
CA -22.5194 34.0082 78.9546
CA -47.0993 11.5771 59.3969
CA -14.0924 32.336 18.8462
CA -31.1722 4.49853 58.975
CA -21.9139 16.6159 46.9154
CA -18.5236 8.89018 11.83
CA -13.3055 -3.94818 42.8965
CA -34.8568 12.3167 54.7764
CA -17.9202 14.3329 17.5628
CA -21.4292 -12.6311 58.5863
CA -23.9332 -22.5168 57.4682
CA -0.720284 -14.0357 55.7044
CA -3.3342 19.6045 18.2919
CA 3.38538 -12.7371 55.0251
CA -3.11771 18.3079 13.4458
CA -17.6676 23.9533 74.3549
CA -15.7108 30.312 17.0852
CA -1.90819 8.7006 9.22692
CA -10.7372 -7.32822 69.227
CA -39.7414 -8.13022 39.8218
CA -12.5257 -12.1783 61.6073
CA -9.48653 33.2833 18.5276
CA -28.2612 9.89779 35.8834
CA -14.2846 19.0664 49.4075
CA -19.4572 -13.1333 39.2628
CA -41.7632 16.2126 57.7217
CA -31.8198 -21.3781 56.2143
CA -33.286 10.4355 79.9962
CA -44.9717 17.4135 62.4662
CA -26.617 8.37778 71.4766
CA -13.5523 14.2349 30.3358
CA -42.9932 16.9371 79.3909
CA -30.2912 22.6728 44.8932
CA -25.3774 1.72823 77.3538
CA -10.4689 -6.14053 54.9351
CA 0.115448 5.69362 8.10689
CA -5.27944 15.4816 17.0953
CA -42.7886 14.0991 57.2644
CA -28.5238 10.3878 75.6594
CA -32.1085 -2.5918 49.6851
CA -31.898 -2.43612 55.6049
CA -17.1347 -14.8345 58.1667
CA -24.6795 18.2623 50.8134
CA -21.3453 10.9411 45.8722
CA -22.1356 -1.97088 84.9566
CA -18.6963 5.42167 46.2738
CA -23.6394 29.2848 77.6166
CA -24.9081 -1.11454 44.9972
CA -22.2808 4.44156 58.8497
CA -38.1525 20.2047 49.8868
CA -15.3334 27.1503 16.2828
CA -37.3117 -6.60492 66.6408
CA -25.2289 -6.56572 83.4867
CA -22.0097 20.7808 72.4278
CA -12.2168 20.7325 45.8327
CA -30.2893 14.2615 58.8342
CA -19.3293 2.40292 35.8267
CA -14.0565 18.5407 17.2317
CA -18.2565 -11.9307 60.9162
CA -27.4309 -7.28961 59.1176
CA -22.7908 22.9174 69.2418
CA -27.4341 10.3852 73.3483
CA -32.519 20.4506 47.4525
CA -17.7633 2.76432 59.8077
CA -21.2155 26.5711 69.1779
CA -27.7234 16.6916 39.5206
CA -19.4003 11.4582 38.5227
CA -35.3151 2.34431 77.8726
CA -29.6748 2.40263 42.128
CA -45.8288 12.9315 65.0614
CA -32.7296 -12.7445 41.7245
CA -3.83854 7.11995 57.9519
CA -20.3239 -7.02505 56.0578
CA -24.3728 -17.6075 64.7821
CA -33.2177 15.9498 52.4992
CA -38.2116 12.5675 73.7717
CA -18.0656 19.1773 16.3455
CA 3.28783 -6.95027 50.5642
CA -26.3547 7.75101 56.2258
CA -27.8724 -18.8871 60.9154
CA -28.7271 -26.3671 53.931
CA -42.4259 9.18599 50.9164
CA -19.1467 18.1825 47.8765
CA -35.3755 11.5072 89.3219
CA -29.1502 22.8191 60.3911
CA -23.0676 13.2391 14.1663
CA -30.8741 -20.1362 55.1808
CA -34.7162 -25.3348 53.5865
CA -20.7217 15.5166 50.3249
CA -29.8455 8.79351 43.0365
CA -36.4342 -11.5213 44.9028
CA -21.669 29.2849 78.6893
CA -9.68997 16.7692 50.9089
CA -26.8622 15.8488 55.3379
CA -2.24654 21.9357 18.5081
CA -32.3003 23.9269 62.357
CA -27.2249 5.41801 39.0129
CA -17.5852 14.9733 21.9894
CA -36.0666 10.7322 83.6601
CA -28.0004 -7.34812 73.6718
CA -24.6317 6.92411 75.7951
CA -44.7407 1.20331 41.7414
CA -22.8108 14.0377 36.5703
CA -24.9142 9.12001 55.8268
CA -13.8909 19.546 47.4965
CA -12.0458 21.5782 49.3218
CA -31.1793 4.21026 42.7472
CA -35.3103 -17.7357 62.818
CA -3.58078 -5.39768 62.9093
CA -7.9931 24.9485 56.0245
CA -19.3901 10.2475 46.0899
CA -39.8262 -0.97394 58.3629
CA -35.6916 -14.975 39.8917
CA -6.87849 9.81371 57.0208
CA -21.8783 -10.2777 69.0856
CA -32.1395 9.43299 45.8224
CA -20.9102 0.722654 54.6423
CA -0.207289 -12.3079 66.5351
CA -9.74077 39.2535 17.5207
CA -47.1719 4.64597 43.1224
CA -5.46653 26.2505 53.9426
CA -13.85 13.4938 7.76733
CA -24.6609 8.38887 39.8714
CA -16.2429 -1.49693 83.3335
CA -37.6805 -15.1281 61.5319
CA -18.8835 4.04792 36.6891
CA -27.1258 23.1327 86.9839
CA -19.9034 -11.1176 40.971
CA -26.5596 -15.7762 71.8695
CA -14.4995 19.9449 28.0683
CA -15.9428 -0.248801 74.3809
CA -26.5735 15.9028 34.2241
CA -30.2318 2.667 44.194
CA -25.6106 -15.2678 62.8447
CA -9.04454 29.9112 19.8461
CA -22.8897 -7.72391 80.719
CA -15.3323 -7.09451 43.0861
CA -14.8273 -6.09573 51.4439
CA -10.0158 24.0938 19.0004
CA -5.60383 2.71919 61.5023
CA -27.5594 6.78025 41.4581
CA -35.5543 10.3324 77.9443
CA -28.1112 26.9968 76.1306
CA -11.171 25.0791 55.2788
CA -31.7642 26.769 72.5043
CA -26.2205 -5.44875 43.0824
CA -25.7614 23.3015 72.5671
CA -16.0083 17.3909 11.8713
CA -1.16114 25.0987 16.8053
CA -39.5094 -3.71979 54.4647
CA -34.1683 22.2106 80.5622
CA -26.5752 3.65399 67.3353
CA -15.6819 8.04865 59.3473
CA -21.3218 -11.4946 76.2046
CA -31.4553 -1.15446 75.1275
CA -26.1764 4.23539 54.8942
CA -17.6395 -6.55889 61.1169
CA -28.5034 -8.91342 72.7484
CA -17.5301 15.9873 47.665
CA -2.41743 24.7904 15.4805
CA -17.2419 22.1354 67.8875
CA -41.3862 4.22333 61.958
CA 6.91201 -2.12074 51.7652
CA -15.2477 -4.51576 59.8725
CA -29.8205 17.403 71.509
CA -7.26776 27.0987 51.4734
CA -30.8456 12.7613 59.6848
CA -32.6744 -21.296 59.6925
CA -35.3042 21.5172 73.7302
CA -26.1642 27.5443 76.3684
CA 3.29618 -3.51062 50.7816
CA -0.526305 12.3635 6.99483
CA -13.5171 23.8104 28.6568
CA -33.0171 0.897287 46.7149
CA -20.6932 5.68839 63.7783
CA -40.5215 0.892239 49.6676
CA -23.721 3.58728 79.1919
CA -33.9586 -6.22532 65.8537
CA -33.6321 13.685 58.7354
CA -20.0324 -15.3236 59.6919
CA -12.152 -0.314395 46.6784
CA -40.7802 20.0037 41.9582
CA -30.8971 -8.64572 59.9875
CA -17.0387 13.68 12.14
CA -16.4981 30.3976 72.0871
CA -37.4725 3.00961 46.167
CA -11.3374 18.8661 50.8036
CA -21.9857 21.2714 51.9297
CA -12.7585 38.4416 16.7565
CA -28.8507 6.84628 55.8979
CA -10.8785 -1.09132 49.9976
CA -8.05415 25.2048 18.6371
CA 2.18161 -9.48152 52.8651
CA -10.2591 27.9367 48.4842
CA -4.52378 17.3198 15.3447
CA -31.5862 5.73742 50.901
CA -13.9212 3.97225 56.9235
CA -22.7801 -3.30159 46.594
CA -29.4286 26.0994 77.1379
CA -18.4451 1.77157 81.6245
CA -14.6648 -1.09618 63.4207
CA -17.9582 -1.15541 64.6579
CA -37.7822 23.8031 77.1708
CA -25.5235 23.7693 82.4838
CA -12.8729 15.5338 35.7928
CA -34.3272 19.3324 51.3157
CA -23.1215 -0.191433 55.3493
CA -8.71898 27.9617 54.0011
CA -30.3899 -24.58 58.0889
CA -15.5986 1.19066 39.0756
CA -33.9986 19.2313 60.7706
CA -27.5414 -7.01474 49.1372
CA -21.1122 -10.77 92.8776
CA -30.2925 4.12011 65.0218
CA -20.2061 10.2118 42.056
CA -29.6105 20.3662 67.3663
CA -7.09772 2.40678 65.7177
CA -23.1339 -5.52912 36.7394
CA -29.5782 -7.46416 75.1488
CA -37.1123 4.33929 50.0472
CA -28.8613 -8.19283 62.9217
CA -39.6533 6.93084 46.5506
CA -27.0421 -9.09008 61.0039
CA -32.9661 8.37195 82.7039
CA -10.0481 21.7614 39.9109
CA -12.3631 17.8078 18.6391
CA -42.2096 13.4224 66.04
CA -11.8685 25.4387 52.1313
CA -42.3453 21.3439 37.8778
CA -30.2864 -2.56347 53.0845
CA -34.3747 15.0393 49.8445
CA -34.8614 6.70144 81.4387
CA -23.5635 1.83492 61.1302
CA -46.4033 16.3838 63.8632
CA -41.9779 6.39143 64.3531
CA -29.6214 19.3794 74.3928
CA -28.1233 20.2481 40.4602
CA -19.3609 3.50271 82.2562
CA -11.3097 22.1866 19.059
CA -7.25169 -2.81683 60.5828
CA -34.6181 -19.5257 41.7831
CA -18.4418 6.50026 68.983
CA -28.4127 14.2222 41.2683
CA -34.1855 -7.29793 63.2807
CA -2.3736 -9.77309 57.9603
CA -10.6306 -1.95828 54.2729
CA -13.4917 37.0578 19.0534
CA -25.5056 19.2313 40.6147
CA -18.0855 -8.7813 61.1354
CA -43.5322 6.12235 59.1919
CA -29.3057 -4.98649 56.2419
CA -39.5646 12.4168 70.404
CA -8.78215 24.7758 46.172
CA -18.2652 26.1118 48.962
CA -10.8854 -3.84318 55.7196
CA -7.54548 0.975735 60.5605
CA -24.7641 -5.37911 45.629
CA -15.0095 3.99381 75.2975
CA -19.6314 -6.84984 91.7374
CA -6.49749 14.1621 15.2084
CA -26.2536 1.14078 58.9337
CA -21.4096 6.1417 47.7233
CA -31.4714 13.9382 56.0949
CA -42.0224 15.9098 60.3646
CA -41.4296 -10.4874 43.2448
