489

CA -23.7246 10.4115 83.0746
CA -35.9594 15.2259 30.6131
CA -26.1285 20.3031 67.8118
CA -12.914 -1.4336 42.7803
CA -19.0235 1.57257 46.1634
CA -25.0803 5.81349 74.4474
CA -40.2638 17.3054 65.8023
CA -3.77088 25.9673 19.2267
CA -42.8936 -11.6485 46.5897
CA -51.6369 -1.60868 69.2884
CA -17.7859 12.8957 10.4484
CA -12.8517 -0.579672 53.572
CA -25.2568 33.923 78.666
CA -35.6559 5.96014 50.8912
CA -7.02285 6.59899 64.3796
CA -10.7877 19.3746 50.3865
CA -29.7516 3.03536 54.0151
CA -16.3787 22.5654 15.8764
CA -17.9214 11.0302 60.8624
CA -23.9206 -8.17832 52.5991
CA -7.08014 17.1025 12.0972
CA -38.3855 -11.578 62.2525
CA -0.763908 -5.05245 49.3395
CA -32.5851 -4.00484 46.3334
CA -29.5721 -13.3629 60.1026
CA -35.9982 6.14824 61.4237
CA -28.4138 4.74486 77.5659
CA -22.8705 -6.41658 85.3582
CA -36.3174 -6.54632 66.2812
CA -26.1614 8.9614 48.52
CA -14.1773 5.23991 60.6384
CA -16.3332 0.375934 77.6274
CA -42.2552 -9.45128 46.5036
CA -26.5497 -6.53588 51.0317
CA -46.7495 -2.71693 61.7697
CA -18.4026 13.1223 57.7839
CA -26.159 6.11018 60.4543
CA -10.3699 -4.98608 51.4407
CA -14.969 20.7418 52.2738
CA -42.0745 12.1928 59.2454
CA -13.7511 21.7244 16.4954
CA -44.0082 -1.82262 50.9833
CA -24.1067 -6.21788 80.7723
CA -14.6248 13.6047 33.5948
CA -24.1796 -10.6996 74.2237
CA -21.2121 -2.97724 86.8855
CA -41.0557 11.1082 45.5739
CA -31.653 12.3366 31.352
CA -39.1409 17.1899 47.4105
CA -25.1659 -3.59415 54.6663
CA -25.8207 25.0815 75.435
CA -4.95743 -7.98244 57.2001
CA -54.8087 3.24649 55.6967
CA -39.4306 9.14961 48.0255
CA -19.6067 -4.76709 56.0392
CA -34.6018 15.9432 73.9396
CA -26.9256 28.7491 80.3042
CA -30.7793 -24.4202 55.6873
CA -16.5503 1.99307 67.1783
CA -28.1873 11.2032 39.0634
CA -41.2057 11.3617 56.3294
CA -26.6795 -0.623824 66.5338
CA -33.9877 -21.2614 51.6048
CA -31.4444 17.0079 75.1464
CA -32.5737 20.0917 69.2618
CA -10.0615 22.6146 24.553
CA -20.5514 -14.0327 33.8481
CA -15.8677 14.6878 13.2303
CA -20.1925 -5.40549 43.0338
CA -21.8032 -21.3458 52.774
CA -25.0835 -3.84153 67.0847
CA -27.2574 -1.03754 42.8225
CA -26.8779 6.77911 91.5322
CA -11.5162 45.309 17.7838
CA -34.9444 26.597 79.4698
CA 0.226723 -10.2281 56.519
CA -21.2524 -0.889436 69.9662
CA -34.6524 -2.36358 47.048
CA -42.9202 -2.07225 66.4062
CA -23.9779 0.437742 52.5066
CA -23.8077 23.1157 78.7192
CA -10.7036 2.48269 44.6379
CA -12.7136 23.5858 19.2919
CA -24.0558 23.1428 75.36
CA -12.4978 13.1658 31.3471
CA -17.5078 11.0021 67.8835
CA -4.66874 22.3543 54.3664
CA -16.0352 19.3307 50.2097
CA -33.7351 16.7273 72.3477
CA -16.7804 3.66747 45.0522
CA -28.8992 -25.4759 61.3832
CA -26.509 8.63217 76.6038
CA -14.1084 6.04889 75.949
CA -20.6864 21.1634 67.173
CA -39.9097 30.4787 80.843
CA -26.9725 3.50863 62.5169
CA -17.0492 12.9235 33.5562
CA -20.5175 -14.8362 55.3969
CA -18.3559 -1.77617 74.2616
CA -29.8616 19.3178 41.0541
CA -15.6659 12.4796 68.785
CA -37.2323 17.1207 76.4801
CA -20.7822 -11.7741 39.9892
CA -41.4338 -3.61901 59.9959
CA -12.0569 -0.332079 50.2224
CA -20.3753 -6.26736 36.41
CA -38.6094 14.1942 75.9517
CA -38.6324 16.173 41.9709
CA -13.5905 8.11484 63.5698
CA -5.34656 17.6144 12.2131
CA -33.4063 -2.62017 45.1574
CA -31.446 10.6637 43.7745
CA -19.4924 10.0306 36.5273
CA -33.6491 17.1539 44.864
CA -29.3683 -8.08669 92.7299
CA -18.5393 20.0645 18.4646
CA -35.2828 1.42775 66.1287
CA -46.077 0.66003 43.3112
CA -43.1883 16.4399 64.123
CA -37.1331 -8.61897 62.8237
CA -46.807 -4.91462 52.1462
CA -37.6918 2.52551 54.2829
CA -38.4104 -1.10773 65.1358
CA -22.9308 -2.45408 46.3361
CA -42.6193 -5.63867 50.9421
CA -13.6711 -9.93667 47.1678
CA -27.9742 -5.12208 58.0338
CA -5.93007 -5.456 57.5485
CA -22.5864 -5.96162 39.9536
CA -22.2109 9.76048 60.3039
CA -41.7213 9.46017 58.198
CA -15.914 -5.84645 82.2233
CA -35.0758 -10.26 62.8457
CA -31.2019 -2.02016 45.6239
CA -20.0118 -3.07034 46.8273
CA -13.4715 -6.97899 43.1958
CA -17.7821 6.71306 57.343
CA -25.3965 3.63033 87.8897
CA -42.077 14.067 60.0915
CA -22.9631 -6.58859 49.3567
CA -41.969 7.61484 66.7385
CA -20.3533 1.83116 52.0122
CA -34.3304 6.81369 76.5325
CA -39.9298 14.4655 50.4814
CA -12.9045 -8.19074 39.0136
CA -39.2629 5.42996 45.0992
CA -25.4077 10.1324 57.7379
CA -3.24883 -15.9779 55.1591
CA -24.4057 4.50026 75.6358
CA -21.9309 2.17895 76.5417
CA -0.516349 -1.40586 62.2996
CA -27.9946 12.5751 34.628
CA -27.275 -12.4132 70.1774
CA -22.1859 9.03492 76.2656
CA -43.3079 4.23376 44.9378
CA -38.5844 26.4832 80.4515
CA -26.179 -4.15496 61.5052
CA -20.6882 -13.5984 74.0192
CA -37.8447 4.84075 49.2041
CA -15.1478 -2.36525 61.5922
CA -8.51323 14.7193 12.1858
CA -21.4109 -16.4809 69.1241
CA -16.1795 33.4463 16.7524
CA -34.9073 -4.98611 67.7696
CA -22.2932 -0.165893 45.196
CA -17.0764 0.127077 63.3491
CA -44.3469 -4.87308 61.5467
CA -7.02373 -4.99713 59.7029
CA -24.4978 -19.2587 55.3992
CA -9.07373 0.0219104 51.7552
CA -46.1618 -0.389691 64.1398
CA -23.5113 5.65938 54.5511
CA -31.4179 25.5689 61.5087
CA -25.7422 7.81759 59.4495
CA -24.57 4.54909 85.4728
CA -36.2704 -3.05875 37.0473
CA -46.1039 -4.04834 69.0921
CA -10.2138 19.6395 14.8495
CA -12.4011 19.0918 22.0126
CA -26.7298 8.16443 50.1926
CA -33.9826 26.1397 74.8237
CA -32.4851 -13.735 61.223
CA -17.6913 -12.1513 32.1024
CA -3.18781 13.9907 9.6825
CA -31.3867 5.68795 52.9821
CA -28.3015 -1.73749 55.1378
CA -24.0894 -2.45869 80.7725
CA -13.1276 3.23355 84.5704
CA -5.40969 16.4194 14.7577
CA -34.5845 -7.32995 68.7872
CA -26.7836 -4.98648 75.855
CA -37.1766 28.0338 74.452
CA -48.3409 -0.720157 46.1817
CA -22.8593 20.6811 15.8208
CA -10.7658 -9.41289 40.3987
CA -3.72325 14.5314 17.9614
CA -45.2734 12.3021 56.804
CA -33.0147 -10.1447 71.3995
CA -9.92908 20.0473 52.7307
CA -17.0609 17.8957 58.7145
CA -10.9189 29.4022 18.5304
CA -24.7229 -8.75276 89.8243
CA -20.3565 6.99339 76.4739
CA -17.4691 -4.76138 63.9604
CA -26.7116 1.19957 84.2753
CA -28.0032 2.95876 51.8864
CA -47.6658 1.00638 52.3972
CA -53.7072 3.81847 58.3475
CA -23.6486 -6.59885 75.0213
CA -25.3077 -5.32269 77.4655
CA -35.0872 10.0494 62.6918
CA -14.2154 -0.846029 44.9837
CA -13.5761 -4.90975 56.9115
CA -16.8667 -9.16456 52.1548
CA -12.7015 9.05365 66.3925
CA -18.098 18.1874 45.519
CA -31.4421 27.3856 60.0521
CA -23.9557 2.54969 91.6126
CA -8.42038 24.6625 60.3114
CA -19.119 -10.326 41.223
CA -40.2519 6.88716 47.3139
CA -19.896 -7.4118 51.2125
CA -25.2602 4.43202 62.1357
CA -18.983 -14.7953 37.6858
CA -12.6385 33.9264 21.3295
CA -20.2021 -8.5618 61.0758
CA -14.0924 32.336 18.8462
CA -31.1722 4.49853 58.975
CA -48.3519 -3.03361 70.551
CA -1.55382 8.94754 12.2242
CA -26.5659 -4.01533 45.6031
CA -40.8321 8.05997 69.4945
CA -14.8386 11.4353 37.4708
CA -21.4292 -12.6311 58.5863
CA -29.9494 20.619 59.4393
CA -9.9137 17.716 16.9687
CA -33.317 22.3764 69.042
CA -35.5722 -8.69169 67.2416
CA -46.2858 -5.74963 67.7039
CA -17.6676 23.9533 74.3549
CA -15.2123 6.60811 56.0075
CA -1.90819 8.7006 9.22692
CA -20.7733 -8.05828 74.9726
CA -39.7414 -8.13022 39.8218
CA -25.4957 16.042 33.0866
CA -9.48653 33.2833 18.5276
CA -13.9267 31.9311 21.7546
CA -28.4908 -9.32652 63.4795
CA -37.6216 20.1703 53.6599
CA -27.2536 -3.49591 84.8597
CA -13.074 11.9964 67.7788
CA -33.286 10.4355 79.9962
CA -44.9717 17.4135 62.4662
CA -25.809 0.135581 59.4684
CA -11.5465 5.20651 46.3353
CA -35.5402 1.31335 44.5895
CA -16.1825 -11.7644 62.9876
CA -19.9645 23.2131 68.2414
CA -25.0813 3.44171 98.2342
CA -24.0275 6.55765 96.0619
CA -5.27944 15.4816 17.0953
CA -11.3461 25.2872 20.3664
CA -17.0978 15.1833 29.1872
CA -19.3615 24.5404 24.7859
CA -33.0299 -17.6233 62.6269
CA -26.7609 -2.75798 55.1062
CA -6.88123 12.7802 58.9146
CA -25.1949 -8.94122 94.5496
CA -32.2917 -14.176 66.1372
CA -6.52157 -9.45668 63.8233
CA -15.5049 -3.75341 56.3609
CA -24.9081 -1.11454 44.9972
CA -10.2106 9.79702 58.1158
CA -47.3306 -5.38976 64.0826
CA -15.3334 27.1503 16.2828
CA -29.7072 12.6566 30.8129
CA -33.6519 -1.37894 70.6539
CA -33.3429 17.7902 75.2182
CA -17.2042 -9.41852 36.9405
CA -28.9918 -8.16894 61.9997
CA -19.3293 2.40292 35.8267
CA -22.7235 22.4799 16.0819
CA -29.0594 16.5113 52.1845
CA -14.3146 9.70415 29.6188
CA -37.4989 19.4027 62.8096
CA -28.6625 -15.4754 56.2387
CA -32.519 20.4506 47.4525
CA -17.7633 2.76432 59.8077
CA -43.3374 17.3107 52.3081
CA -39.0042 20.1578 55.2943
CA -19.4003 11.4582 38.5227
CA -35.3151 2.34431 77.8726
CA -14.8378 0.775307 46.2086
CA -7.49859 6.30428 66.3779
CA -38.5594 4.61008 51.6048
CA -19.5343 5.10819 53.8919
CA -24.4106 13.7252 60.2715
CA -26.5128 20.2025 38.6563
CA -10.0788 12.9407 59.5084
CA -7.88513 2.19483 70.1552
CA -37.9982 10.9328 66.2492
CA 3.28783 -6.95027 50.5642
CA -12.303 1.30285 54.8821
CA -24.3578 -10.105 76.7224
CA -6.34414 20.5917 17.1007
CA -26.8091 3.85793 79.3823
CA -19.1467 18.1825 47.8765
CA -37.0756 -4.19112 63.3452
CA -19.5162 -5.22929 86.477
CA -21.3843 27.0091 73.9377
CA -30.8741 -20.1362 55.1808
CA -25.629 10.2625 46.1287
CA -31.5896 3.7109 87.1964
CA -29.8455 8.79351 43.0365
CA -27.676 3.08769 85.1238
CA -26.0133 -18.9846 49.2695
CA -35.0952 7.36418 64.3379
CA -12.7396 16.7479 50.7999
CA -2.24654 21.9357 18.5081
CA -47.5914 1.29786 40.4392
CA -14.0437 -6.59175 44.9026
CA -17.5852 14.9733 21.9894
CA -36.0666 10.7322 83.6601
CA -22.2234 -10.8907 41.2571
CA -24.6317 6.92411 75.7951
CA -44.7407 1.20331 41.7414
CA -13.3959 21.4318 47.7807
CA -36.3169 10.3595 59.6175
CA -8.10312 20.787 56.0661
CA -14.0408 0.944968 83.3098
CA -28.2329 15.6678 55.9086
CA -13.0975 -8.21377 36.7488
CA -3.58078 -5.39768 62.9093
CA -7.9931 24.9485 56.0245
CA -29.4182 22.0589 65.0294
CA -23.5783 17.807 54.4963
CA -15.0701 9.33094 40.1017
CA -8.35291 -7.14591 56.373
CA -17.4937 10.0391 35.2191
CA -16.6682 -7.63764 72.4742
CA -14.5946 -0.955094 51.0276
CA -0.207289 -12.3079 66.5351
CA -33.927 -27.1008 55.7167
CA -21.9769 -6.61331 37.7533
CA 4.0511 -11.4202 56.0738
CA -13.85 13.4938 7.76733
CA -25.9557 -5.47222 88.7575
CA -16.2429 -1.49693 83.3335
CA -17.2516 4.27853 73.6206
CA -19.5309 3.34417 89.9005
CA -13.1825 22.4083 24.0592
CA -26.0788 23.4546 70.7554
CA -16.4203 1.02748 54.7446
CA -14.4995 19.9449 28.0683
CA -20.1347 8.3197 50.7407
CA -12.3615 22.4394 25.8205
CA -15.2997 4.19329 66.8852
CA -47.5695 -3.0882 46.726
CA -0.745767 -8.04815 45.6003
CA -32.4119 21.5985 44.3951
CA -32.5309 0.966573 49.0725
CA -34.9449 -4.07286 64.1959
CA -18.4457 -7.25423 49.8238
CA -5.60383 2.71919 61.5023
CA -50.6735 3.30729 56.001
CA -13.2718 10.7792 57.11
CA -28.9949 21.192 52.1107
CA -34.3804 15.1754 53.4385
CA -22.7394 -14.9523 51.8556
CA -7.76522 20.1336 13.4354
CA -19.0968 1.18583 77.8192
CA -17.8762 23.9373 26.3438
CA -11.6471 40.4558 17.2141
CA 0.91278 -9.85536 65.4274
CA -20.5266 9.35182 44.7347
CA -13.3293 -5.71859 41.6466
CA -15.6819 8.04865 59.3473
CA -41.2394 8.93135 47.8546
CA -31.6402 4.10985 75.1455
CA -36.34 -6.55812 68.5409
CA -20.7786 -5.45212 48.9284
CA -28.5034 -8.91342 72.7484
CA -1.48086 -7.75809 61.3779
CA -2.41743 24.7904 15.4805
CA -42.906 -7.58599 45.7765
CA -28.04 1.34418 81.2039
CA -43.9825 19.3961 63.5069
CA -24.957 -10.8135 59.6487
CA -29.8205 17.403 71.509
CA -32.1189 25.8113 73.3573
CA -34.1961 -17.5841 49.8189
CA -1.28807 4.66502 7.62989
CA -34.8624 14.6989 29.0772
CA -28.2145 25.9333 71.856
CA 3.29618 -3.51062 50.7816
CA -3.68589 -11.1359 55.2301
CA -0.293662 28.1133 17.2903
CA -6.80285 2.45693 42.6016
CA -20.9149 -9.89904 62.5612
CA -40.5215 0.892239 49.6676
CA -22.5028 -2.5838 66.1932
CA -27.3045 -9.54224 74.8568
CA -34.1217 -2.50235 75.3571
CA -20.7838 -3.43092 37.3751
CA -10.3645 18.1828 21.7952
CA -40.7802 20.0037 41.9582
CA -48.8941 12.7286 52.9831
CA -17.0387 13.68 12.14
CA -18.163 -5.48845 50.5078
CA -15.766 -17.152 54.9382
CA -16.0153 11.7569 56.1833
CA -45.4246 14.829 64.3383
CA 3.19648 -15.667 68.1697
CA -28.8507 6.84628 55.8979
CA -20.4371 -3.78087 75.1841
CA -8.05415 25.2048 18.6371
CA 2.18161 -9.48152 52.8651
CA -39.0008 9.4325 57.6666
CA -9.23663 17.2356 13.4131
CA 1.39019 -12.1174 55.8692
CA -32.9368 -1.17108 40.576
CA -18.3104 4.2773 56.0031
CA -29.4286 26.0994 77.1379
CA -44.9462 -8.06565 65.3791
CA -14.6648 -1.09618 63.4207
CA -17.9582 -1.15541 64.6579
CA 0.671941 7.09197 7.10423
CA -20.0256 14.8734 59.4841
CA -27.4589 21.0446 42.5721
CA -4.33142 5.50972 61.4626
CA -32.5147 27.8465 72.3781
CA -20.9579 14.2838 44.9856
CA -30.3899 -24.58 58.0889
CA -15.5986 1.19066 39.0756
CA -30.3673 26.3158 73.7811
CA -18.7982 19.7033 49.8406
CA -20.6779 -7.42486 38.9671
CA -16.6178 -14.0798 35.6314
CA -23.1013 7.29138 46.621
CA -12.4353 25.0996 55.7012
CA -21.1706 -8.98509 64.6816
CA -22.8404 1.14636 54.8128
CA -23.1485 9.56513 41.436
CA -23.0544 22.1228 67.5378
CA -37.1393 16.9644 53.9591
CA -29.5512 18.5719 51.2728
CA -13.1239 -0.970696 38.7677
CA -27.5843 19.227 66.3895
CA -14.4588 14.7155 22.2099
CA -12.3631 17.8078 18.6391
CA -12.5661 8.84783 56.0378
CA -26.721 7.73435 84.4121
CA -4.59522 20.3869 10.2104
CA -4.11266 -0.788238 63.8381
CA -14.3994 19.6607 47.3642
CA -26.7605 -7.90351 59.1455
CA -34.4763 17.129 54.9429
CA -27.4273 22.1796 55.6589
CA -41.9779 6.39143 64.3531
CA -16.3097 22.2985 28.249
CA -13.8561 -4.92288 54.5774
CA -19.3609 3.50271 82.2562
CA -4.7505 17.5987 17.796
CA -39.9145 -7.76259 37.9034
CA -0.945028 -18.8916 58.373
CA -18.4418 6.50026 68.983
CA -17.6062 16.9846 27.4457
CA -13.7739 16.0965 16.4062
CA -43.6417 -5.52306 68.5358
CA -47.6597 16.033 66.2322
CA -13.4917 37.0578 19.0534
CA -23.6378 18.162 48.9296
CA -18.0855 -8.7813 61.1354
CA -26.6267 0.261444 44.3158
CA -1.03077 -5.22677 62.393
CA -12.5564 42.8535 18.2032
CA -12.7335 -9.38803 50.7989
CA -15.9227 -4.16499 47.2054
CA -18.4423 -5.68459 48.5355
CA -13.6389 -2.77337 45.2571
CA -21.3496 7.65389 74.9729
CA -37.0014 -13.4432 61.2361
CA -27.9865 8.68086 43.4714
CA -6.49749 14.1621 15.2084
CA -17.9967 -15.0863 39.8903
CA -11.2645 3.61179 84.1262
CA -17.8522 -11.2028 36.7173
CA -42.0224 15.9098 60.3646
CA -41.4296 -10.4874 43.2448
