489

CA -23.6021 10.4712 54.1109
CA -34.0742 7.70583 41.5663
CA -9.91432 -9.546 58.7074
CA -37.1817 16.9457 65.7468
CA -38.2658 -12.1535 54.5792
CA -6.75313 17.9416 24.5514
CA -46.0506 9.03194 66.144
CA -3.77088 25.9673 19.2267
CA -40.8339 -14.2279 57.4921
CA -22.7549 1.4589 74.6381
CA -3.60682 -8.12785 64.5172
CA -2.82661 18.2927 17.0672
CA -44.7078 -5.71736 80.8146
CA -32.214 -11.392 51.7164
CA -52.1577 3.81509 52.5238
CA -24.7198 5.73115 42.609
CA -26.7973 -0.96937 77.8508
CA -16.3787 22.5654 15.8764
CA -32.5034 13.6637 37.9578
CA -35.3669 27.212 76.5959
CA 0.0349356 21.5848 17.462
CA -51.3459 0.444367 69.3149
CA -23.1274 1.52675 40.2403
CA -16.8279 0.553254 65.8351
CA -5.36422 19.8005 15.7871
CA -32.399 27.41 74.5116
CA -14.0577 -4.35186 56.1302
CA -41.4134 -9.40916 84.049
CA -6.42753 21.0852 10.478
CA -38.2068 27.0571 77.1031
CA -0.769668 13.5562 7.40903
CA -31.3885 11.4823 83.7031
CA -14.0666 -3.84577 58.7879
CA -18.6355 3.32624 56.8394
CA -46.9763 -3.86566 63.9971
CA -24.8157 1.15429 76.1928
CA -33.4376 -10.0413 62.8791
CA -43.0824 -8.74895 84.3229
CA -18.5098 20.1944 51.2958
CA -9.06656 12.3025 53.7815
CA -20.3816 0.831061 32.9661
CA -13.6807 8.27698 36.9184
CA -23.8371 12.159 59.6049
CA -38.9284 -11.8777 84.6919
CA -24.8923 9.94851 39.4187
CA -31.7708 -2.18586 47.9981
CA -35.4492 -7.00477 46.2313
CA -11.7822 22.8589 58.9315
CA -39.5609 2.37517 67.9364
CA -24.1709 10.4826 64.5004
CA -30.8231 23.5292 67.0607
CA -39.6446 28.0369 78.6344
CA -41.3075 22.6684 62.2085
CA -31.1504 23.45 79.2458
CA -35.2929 -2.86374 46.3951
CA -25.8154 10.3796 43.226
CA -51.9124 12.8174 46.0036
CA -43.096 2.79181 59.312
CA -24.4922 16.1003 44.4666
CA -39.4603 22.6508 72.7699
CA -1.39631 17.1345 18.0026
CA -50.5786 9.44046 40.7682
CA -20.5888 11.4477 56.777
CA -9.56676 0.441938 34.5442
CA -43.8599 5.74469 57.78
CA -40.5473 22.0247 79.2928
CA -40.5462 9.81677 61.5335
CA -17.397 5.33404 63.5872
CA -9.1298 -4.21697 70.7077
CA -25.5421 -13.2349 44.8564
CA -33.9589 24.5006 82.4716
CA -46.567 -7.88737 61.7299
CA -2.25447 22.3468 12.4726
CA -18.2812 -9.38087 46.3955
CA -46.4495 10.2145 43.9232
CA -37.2256 -4.03095 37.0345
CA -37.9567 3.13373 82.5844
CA -31.0302 20.2291 66.1716
CA -18.2492 -3.08596 40.3312
CA 5.8 5.44761 4.04865
CA -34.1156 1.80176 46.6851
CA -6.55183 -4.94496 66.4791
CA -30.6986 15.4065 54.3721
CA -26.8892 2.499 89.2529
CA -49.8304 10.7459 46.5116
CA -41.6052 7.72502 58.0306
CA -43.602 4.7358 84.948
CA -45.8623 -6.18637 58.4231
CA -51.407 14.8405 48.4248
CA -23.4692 -1.15567 68.889
CA -2.76316 13.7082 12.2939
CA -52.0185 -1.15991 64.264
CA -55.877 5.60168 52.0535
CA -18.587 -4.52275 45.6603
CA -38.1158 -12.9507 59.358
CA -17.072 5.40016 57.0226
CA -35.9247 -15.6253 55.4743
CA -36.7098 11.3968 46.8792
CA -39.9178 0.0989771 41.5909
CA -29.7809 11.0386 54.0714
CA -29.4987 2.41423 56.3391
CA -28.3825 1.4093 71.6882
CA -21.1661 14.0614 56.8798
CA -37.213 -2.82224 46.138
CA -36.1964 3.99137 69.0325
CA -30.543 7.02564 71.5345
CA -35.4866 9.61977 67.6293
CA -45.2484 4.20328 70.7221
CA -44.3589 15.4478 42.8818
CA -28.8455 -0.816514 60.6991
CA -27.5099 8.91763 63.7753
CA -27.6612 0.983119 54.8114
CA -41.8491 6.24786 64.8135
CA -43.6249 -4.53988 55.4204
CA -45.8813 -5.52505 83.8484
CA -18.5393 20.0645 18.4646
CA -36.2308 0.0448639 47.1053
CA -23.1334 23.1741 65.1283
CA -19.8151 6.22615 53.9688
CA -59.2062 2.57555 51.2939
CA -19.3477 -6.88184 51.148
CA -45.4057 2.76519 52.9161
CA -47.1668 7.55884 50.2198
CA -13.1502 26.0797 19.715
CA -36.0186 8.23797 47.0241
CA -18.0595 11.5507 9.31247
CA -43.5478 6.2451 38.5698
CA -14.9477 22.5309 18.0034
CA -34.6595 -4.59742 46.4444
CA -13.8419 15.3028 30.8244
CA -16.4414 1.77054 68.5958
CA -49.3661 9.86599 57.8641
CA -25.8262 19.0808 56.3272
CA -42.3248 9.41572 63.2153
CA -20.5566 7.679 64.9295
CA -36.0214 16.7655 62.195
CA -24.6683 -12.1351 66.6583
CA -41.0148 -11.1215 47.5244
CA -24.9942 20.7981 56.9791
CA -50.2564 5.03187 50.9552
CA -27.3927 -12.9873 52.3175
CA -21.8749 -5.99511 69.4442
CA -26.4815 11.3242 51.9747
CA -11.0966 -5.58749 44.8555
CA -15.313 14.3368 50.9807
CA -44.3009 7.95552 46.3303
CA -38.1614 12.1824 64.5825
CA -21.5479 17.4842 36.0627
CA -38.4384 -5.58253 56.9545
CA 1.67559 8.98905 8.75805
CA -36.1098 20.5477 53.3897
CA -40.5046 18.8277 58.5765
CA -15.2862 23.7044 14.5373
CA -34.3868 12.3038 81.0608
CA -32.2296 -17.876 56.5677
CA -32.4519 -10.2695 68.6472
CA -36.0537 1.45243 84.7771
CA -23.302 -12.9174 57.6233
CA -9.59043 19.3397 6.99127
CA -31.0223 15.0756 35.6815
CA -15.1211 -6.97109 55.5412
CA -39.3933 -7.17975 46.6869
CA -14.877 32.0373 18.432
CA -38.4589 19.6235 53.6086
CA -35.9171 28.742 69.0141
CA -46.4219 3.3778 49.5084
CA 2.44897 11.1493 0.330217
CA -19.438 24.4762 40.5663
CA -23.807 2.82215 41.8949
CA -30.1023 -7.72912 73.0979
CA -18.4137 6.22624 34.189
CA 9.83154 6.2472 2.08776
CA -36.817 4.05096 70.7302
CA -21.7162 -4.2125 75.862
CA -22.0128 1.69748 57.5548
CA -42.1148 14.6224 68.0053
CA -44.5813 7.81978 72.5934
CA -14.6264 20.002 12.8316
CA -30.5142 -0.723574 53.8454
CA -32.1532 -2.31258 45.5801
CA -44.2753 18.522 42.9924
CA -37.314 5.56122 79.6971
CA -9.43647 29.5807 14.4305
CA -17.3056 -2.49254 58.7436
CA -16.964 13.9398 56.0892
CA -13.2448 21.7477 20.3465
CA -46.2217 23.1015 68.2525
CA -27.8091 1.20889 67.2503
CA -40.9008 23.2208 45.8139
CA -13.9095 14.3335 49.6553
CA -22.7234 -10.4009 55.4061
CA -28.2048 3.7838 75.8255
CA -20.2745 8.92145 63.1009
CA -22.4101 -6.56966 80.7655
CA -13.8659 -11.1274 51.647
CA -41.6533 0.0229439 90.962
CA -42.0442 21.4532 76.5756
CA -40.884 6.7635 59.9777
CA -18.2754 -7.38508 47.6774
CA -30.4905 1.81673 46.5369
CA -10.9189 29.4022 18.5304
CA -49.1523 0.105414 45.2393
CA -33.0357 4.2037 59.6703
CA -23.7065 17.124 35.392
CA -28.818 2.40186 49.8847
CA -38.2821 23.0824 79.6389
CA -33.7211 -15.9395 61.6318
CA -30.0798 18.5304 40.0425
CA -27.0618 -9.49484 70.2904
CA -40.8507 14.8911 54.8008
CA -46.1661 15.974 49.5119
CA -39.8921 -6.83082 37.1443
CA -12.4499 -0.418383 71.5055
CA -34.5476 17.2384 64.7193
CA -16.1818 -0.319641 60.2098
CA -34.4829 25.2019 78.6721
CA -45.1956 7.39581 61.0118
CA -38.9294 -14.0723 84.8745
CA -53.0686 14.8317 47.1489
CA -7.19175 17.7802 19.9287
CA -16.6186 18.7053 41.9858
CA -18.5905 0.547333 39.9241
CA -39.516 -0.895205 64.5489
CA -25.2789 30.6276 75.5373
CA -18.9298 5.54165 67.6181
CA -25.3486 -8.03485 44.2594
CA -3.53612 22.9019 15.9354
CA 2.80499 21.8887 15.7478
CA -32.8531 5.28842 63.2479
CA -27.5466 -11.5024 54.4978
CA -38.719 -6.72046 82.3695
CA -25.4351 -4.76565 71.7141
CA -43.0221 7.79691 71.4284
CA -40.6487 -8.55226 79.5633
CA -26.117 -3.01067 64.345
CA -47.5933 11.6812 73.0159
CA -36.7115 7.34127 61.0152
CA -31.2909 5.75774 76.785
CA -28.9742 -4.82537 77.3443
CA -17.9656 16.248 47.1608
CA 3.17405 30.6028 16.5191
CA -12.535 20.0852 11.5528
CA -24.4768 1.42518 61.0958
CA -15.5547 8.54673 40.4522
CA -38.8362 1.22237 93.3644
CA -24.4457 -13.2535 42.4469
CA -28.7791 1.1237 53.2592
CA -30.998 5.47646 47.793
CA -16.4984 -2.86903 32.3356
CA -19.4831 1.15159 55.5177
CA -10.1806 -4.61192 49.751
CA -6.94526 12.4241 5.94397
CA -43.9981 22.5464 72.4077
CA -41.477 -10.2418 55.2313
CA -35.2196 21.7833 72.2367
CA -45.5701 23.8488 70.8779
CA -19.7979 26.244 69.5746
CA -29.3246 -16.2363 66.1242
CA -42.1643 -6.80457 79.6316
CA -22.4385 -4.10187 49.4106
CA -5.27944 15.4816 17.0953
CA -31.0992 4.714 68.4566
CA -30.339 9.43833 53.4114
CA -32.4407 -3.75604 71.3282
CA -36.1881 18.3596 47.7413
CA -42.0136 4.49143 72.4135
CA -34.1575 -6.83906 73.1748
CA -28.196 11.4041 61.5923
CA -16.3733 15.6961 54.4905
CA -50.6272 2.40187 68.1136
CA -34.4101 11.8685 52.0703
CA -26.7768 23.4451 62.9522
CA -15.633 13.3905 18.8188
CA -39.3147 16.1601 50.4434
CA -15.3334 27.1503 16.2828
CA -25.2467 23.6883 68.6093
CA -29.87 -14.493 64.4767
CA -34.8615 1.23564 82.7252
CA -40.1406 17.5299 53.7135
CA -23.0634 -8.37156 50.8754
CA -40.0057 20.1925 75.9936
CA -5.69226 -1.39591 70.4612
CA -33.6568 8.73117 71.2041
CA -22.6817 23.5374 38.8376
CA -48.4819 -2.03818 63.439
CA -29.8944 -1.16699 40.3473
CA -22.5614 23.6519 67.1123
CA -24.9923 21.9762 58.9308
CA -25.802 -12.0639 42.2599
CA -40.4639 2.98991 70.5213
CA -19.4003 11.4582 38.5227
CA -22.5494 -6.66091 49.0732
CA -37.2093 5.49674 58.8691
CA -24.0444 13.8152 45.7863
CA -17.1931 20.6533 41.5454
CA -28.9574 -3.42545 82.7109
CA -16.6737 -0.707108 28.7664
CA -39.0412 15.5782 43.8415
CA -21.2224 -6.85708 50.3026
CA -0.533832 8.5274 2.78896
CA -50.9335 9.48797 53.1701
CA -26.5033 29.9656 79.5626
CA -29.4476 22.9732 80.2089
CA -37.6378 8.86584 77.9895
CA -20.9588 20.1505 34.8184
CA -17.8487 11.0361 44.2343
CA 5.25819 7.10786 1.35787
CA -17.5055 0.0278108 54.0453
CA 5.72745 29.5169 19.7391
CA -15.5611 13.3005 39.4098
CA -37.1345 3.39312 80.104
CA -24.8555 2.06936 46.7677
CA -41.4654 14.9702 38.5368
CA -39.6572 1.88311 84.8353
CA -29.2888 10.1006 76.0715
CA -32.3898 -10.0235 66.5963
CA -24.5879 12.3494 52.2913
CA -45.0323 -2.64614 77.8852
CA -38.4823 -3.37719 41.5448
CA -12.4771 -2.12306 34.8938
CA -43.7576 -1.11565 76.7995
CA -42.5964 18.1215 43.9169
CA -6.64465 17.0994 16.5398
CA -2.58523 10.1082 11.4705
CA -28.2072 -1.19976 67.8977
CA -4.12827 17.5706 8.65195
CA 6.45142 8.11318 4.99528
CA -39.1509 -8.5943 77.0154
CA -37.9888 -10.7757 59.8896
CA -27.2745 -1.78852 83.4286
CA -41.8695 -3.54765 45.5801
CA -24.9289 13.045 39.9592
CA -12.4566 8.75144 61.6757
CA -51.0696 8.12465 39.4616
CA -40.5054 -14.7888 62.0896
CA -39.5225 20.595 64.892
CA -11.6594 -4.39969 53.4486
CA -34.9532 0.161833 81.068
CA -16.1827 0.400074 31.0867
CA -46.7253 17.3995 65.029
CA -15.0465 10.1241 39.6332
CA -28.2833 30.8976 77.5773
CA -49.5219 0.226936 61.4193
CA -47.0356 -4.24269 44.7852
CA -50.0496 -7.11545 59.667
CA -12.6922 13.5636 6.80691
CA -49.676 14.3028 76.3436
CA -9.58574 -9.38666 40.753
CA -16.8003 9.08837 62.2766
CA -39.8363 16.4708 48.3252
CA -36.9854 8.9558 69.2149
CA -4.51401 -11.1497 67.5248
CA -30.6252 -4.92116 47.2361
CA -34.5543 -5.30443 78.019
CA -49.5466 5.40314 69.9101
CA -23.1136 13.236 40.9683
CA -14.2107 -8.55395 54.5531
CA -33.9431 3.72865 68.5884
CA -2.65153 15.9463 16.9252
CA -19.5012 23.1147 15.9351
CA -49.657 2.5059 51.3232
CA -7.56453 -11.292 59.4543
CA -26.1052 -3.59782 67.2599
CA -34.1741 -5.67581 80.3128
CA -37.7666 0.774143 37.6645
CA -34.0923 -7.55451 47.8101
CA -17.3099 -4.92853 56.4012
CA 0.139528 -6.90778 68.3975
CA -30.1487 12.0895 63.4739
CA -32.674 26.7376 72.225
CA -32.6621 -5.93355 41.9398
CA -28.5983 -21.1973 55.569
CA -33.3085 -13.3368 66.1976
CA -0.619543 25.6041 17.7172
CA -39.1041 28.984 82.4768
CA -7.9653 -5.68739 49.2869
CA -4.88963 -9.26312 63.2788
CA -22.5682 6.46393 65.6447
CA -44.9479 20.8459 75.2428
CA -32.0253 11.4546 54.8916
CA -33.3888 0.0074728 79.5017
CA -47.1908 3.95549 42.1872
CA -34.9349 3.47036 45.5527
CA -34.6547 -3.52302 38.8516
CA -13.2243 19.5801 52.0737
CA -32.9283 3.09609 38.3311
CA -40.0532 25.1071 80.1167
CA -28.5412 3.58796 59.214
CA -41.0651 -4.75218 53.3642
CA -19.8073 0.982215 72.0796
CA -42.0405 -4.73465 83.431
CA -22.5281 21.4029 72.631
CA -44.4134 13.5028 45.424
CA -10.9245 24.5688 53.909
CA -14.1254 24.6014 24.2314
CA -24.0911 3.99468 44.3428
CA -0.293662 28.1133 17.2903
CA -0.737711 8.15776 4.64375
CA -7.54516 16.402 53.5548
CA -36.3276 13.4659 52.4834
CA 1.59125 23.9588 15.6618
CA -23.4507 -7.48352 65.4824
CA -9.46513 40.2045 20.6787
CA -29.1558 0.132808 65.6646
CA -32.0929 21.757 79.7577
CA -42.8591 0.832901 40.6943
CA -19.8231 20.3613 44.0787
CA -38.6802 6.44736 46.0974
CA -20.6613 -3.53188 67.801
CA -43.9424 -6.9294 49.8744
CA -10.8047 29.1666 16.2652
CA -23.1358 -6.38351 45.2313
CA -39.2697 15.5502 56.4696
CA -22.6178 -3.78059 80.119
CA -36.9958 -2.72589 87.5745
CA -29.8542 19.2553 75.5975
CA -24.8534 15.9895 40.6899
CA -24.3256 22.7481 41.4408
CA -52.8851 8.26617 56.1406
CA -15.7062 10.147 34.7843
CA -23.3271 -0.176855 41.8032
CA -14.8315 6.56173 40.0834
CA -13.1782 0.890738 34.4916
CA -37.6176 19.0298 70.345
CA -39.6961 20.452 44.1309
CA -28.1053 14.9589 42.5189
CA -35.974 28.626 73.8992
CA -15.2118 15.1461 13.0683
CA 1.49664 8.66284 13.7651
CA -14.8927 18.3073 24.8115
CA -47.9067 6.16239 36.8714
CA -27.1897 13.2156 43.5207
CA -14.3582 15.1946 9.10374
CA -24.9456 0.748595 40.1728
CA -16.9056 15.845 31.6356
CA -21.0843 16.7778 38.4626
CA -9.32825 19.9814 13.5464
CA -14.9823 28.601 17.8837
CA -16.1369 15.0587 42.4027
CA -37.365 -9.41333 44.7499
CA -37.1727 -19.3494 52.9279
CA -25.165 3.14384 73.5805
CA -44.8952 -1.86013 54.8464
CA -34.4331 0.300144 52.6837
CA -49.4995 12.0811 59.113
CA -24.5167 1.48901 50.1363
CA -6.12406 15.8666 6.35858
CA -47.6952 -1.8303 60.6665
CA -27.8207 1.93101 83.5565
CA -12.3631 17.8078 18.6391
CA -24.448 -17.0438 44.5973
CA -18.6923 1.12271 65.6027
CA -6.53127 -5.28205 69.1014
CA -42.9844 -2.6429 50.6451
CA -37.1977 -0.177435 87.3722
CA -26.334 18.5587 39.396
CA -38.8383 -2.22224 56.9998
CA -12.6539 13.5645 53.1583
CA -46.0736 14.6317 60.8079
CA -33.9723 4.11219 42.1206
CA -28.2585 -14.7326 47.2835
CA -17.6903 4.68731 52.1548
CA -12.6219 33.4533 15.7454
CA -34.8829 -18.3235 66.5228
CA -39.3584 -13.1535 45.5339
CA -0.055647 15.5455 16.6928
CA -35.424 4.6017 49.1749
CA -37.3066 5.65428 49.47
CA -50.0843 -5.88698 62.0466
CA -9.59317 23.6015 21.4376
CA -13.4917 37.0578 19.0534
CA -15.9213 11.9895 34.0529
CA -27.933 7.57848 74.5118
CA -11.6119 17.1074 29.718
CA -12.4244 17.6566 24.4199
CA -49.1843 2.03752 66.3845
CA 1.33016 30.5715 16.9552
CA -14.6138 0.418495 37.54
CA -29.6659 11.487 58.3579
CA -30.5236 11.1686 67.1481
CA -11.8356 17.5692 11.7713
CA -26.2848 13.1616 58.4763
CA -49.2985 7.10323 53.3701
CA -28.6509 13.5098 41.1873
CA -25.1372 -14.8558 43.4956
CA -28.1463 28.715 75.8357
CA -20.7035 -2.35314 69.2683
CA -32.4448 -0.473583 41.9401
CA -14.1663 1.5483 30.6602
