489

CA -16.2816 11.5026 9.86657
CA -13.0224 12.0474 30.9979
CA -39.125 10.617 42.0016
CA -25.6872 10.4535 51.8094
CA -40.747 -2.60223 44.1053
CA -29.6168 -15.6511 74.0661
CA -2.72022 27.0528 14.4108
CA -3.77088 25.9673 19.2267
CA -29.1446 9.50787 50.1493
CA -4.6121 13.7289 14.4063
CA -15 7.92301 39.7752
CA -2.82661 18.2927 17.0672
CA -23.8584 11.4088 34.5769
CA -29.995 17.7779 68.8748
CA -37.0709 -10.2233 37.1208
CA -35.0818 22.4831 52.4827
CA -21.6182 -10.4948 46.6438
CA -16.3787 22.5654 15.8764
CA -39.5341 -11.7547 53.8189
CA -50.8225 11.7292 67.2423
CA -19.057 14.0494 46.1315
CA -56.6341 16.5634 45.4522
CA -41.1269 -0.972531 83.9099
CA -20.7242 13.161 64.7598
CA -9.75644 27.4104 17.2403
CA -30.8269 2.23505 40.3838
CA -33.4643 12.9781 63.3249
CA -29.0747 1.77807 60.7211
CA -33.2348 -2.24105 33.9508
CA -32.0653 8.44289 48.3411
CA -23.2955 7.71466 53.9502
CA -45.4788 0.273677 83.0109
CA -40.8915 7.00454 38.9312
CA -40.3044 18.7376 52.1568
CA -34.0066 20.1336 49.5861
CA -36.0724 -8.24478 62.1735
CA -25.3937 11.7118 53.2444
CA -43.8683 -5.23825 42.4715
CA -40.4715 -9.383 43.156
CA -40.744 21.4771 74.0293
CA -15.1579 23.2042 21.9993
CA -26.8186 -0.853893 56.3432
CA -38.5738 21.3808 61.1379
CA -18.1219 21.2363 16.4519
CA -24.0862 11.7653 63.4377
CA -36.6198 21.3842 73.5214
CA -7.99092 17.9275 51.1602
CA -32.6924 -21.2182 49.158
CA -46.8581 3.99128 57.1092
CA -33.7467 3.79026 81.3489
CA -48.8086 7.65808 43.0711
CA -35.7123 17.674 63.851
CA -29.8804 -17 69.157
CA -45.0668 1.30903 56.4474
CA -29.0404 -2.58262 38.5986
CA -35.5515 0.412213 36.444
CA -8.92163 17.8094 11.5149
CA -13.3293 1.12832 35.591
CA -40.6887 13.1112 69.3069
CA -35.5296 6.16886 77.4721
CA -1.39631 17.1345 18.0026
CA -23.72 16.3102 63.6399
CA -45.7604 0.677015 52.4036
CA -32.4012 7.45318 82.1529
CA -14.9622 12.6619 36.9037
CA -36.8947 20.9245 76.0333
CA -36.3659 20.2123 61.0852
CA -15.1603 18.6631 45.9723
CA -38.2003 6.98169 91.8938
CA -48.1375 11.7461 52.7507
CA -44.2612 1.07326 66.4529
CA -27.7163 7.28972 34.4389
CA -17.6575 -3.31939 60.5389
CA -12.6685 15.4208 53.4462
CA -29.8295 -9.36009 54.6986
CA -49.225 -10.4302 62.3337
CA -23.3731 -7.99619 57.4205
CA -40.1097 -9.28276 65.1161
CA -50.9689 25.4201 66.6077
CA -17.183 -7.38514 46.2765
CA -29.7408 12.5264 58.1475
CA -38.7169 -0.234498 65.0808
CA -32.6715 12.3716 70.9562
CA -16.412 -7.46444 50.582
CA -35.4671 -3.34901 49.4236
CA -35.8229 -13.2583 50.8867
CA -34.8909 13.8911 49.5366
CA -52.1586 19.3469 72.4838
CA -34.852 17.4267 74.8169
CA -31.3206 2.30717 42.9187
CA -38.9212 -15.8311 51.5627
CA -37.1921 20.2084 79.3736
CA -39.0384 -15.3768 54.9937
CA -12.2076 11.8623 0.672463
CA -17.3278 -12.4356 44.0539
CA -34.1295 3.50483 89.3392
CA -42.0806 -7.47171 42.3156
CA -40.1224 16.2987 52.6778
CA -19.3684 15.6936 34.2471
CA -19.6132 16.2211 68.4781
CA -15.7111 14.0729 46.76
CA -20.5915 22.0782 47.7595
CA -34.607 3.65283 40.2874
CA -33.1791 -6.26511 54.7675
CA -14.138 -1.66617 54.7507
CA -12.7704 13.9344 23.2019
CA -23.775 7.93398 34.8718
CA -38.9626 -6.74564 41.2755
CA -18.4038 3.26274 65.9918
CA -33.2367 4.09635 59.9351
CA -11.3886 17.4917 25.7999
CA -17.864 13.1479 37.1212
CA -34.1688 24.3232 55.0258
CA -20.2471 19.375 43.0539
CA -45.8813 -5.52505 83.8484
CA -18.5393 20.0645 18.4646
CA -24.0865 -11.5231 51.6467
CA -20.1643 4.60509 55.7181
CA -28.1627 8.01574 31.8783
CA -34.9803 5.75355 41.9069
CA -37.9091 -4.04707 44.0647
CA -29.8689 -9.94024 58.9658
CA -29.1998 -18.9633 55.0457
CA -13.8395 18.11 52.1415
CA -37.7213 6.20608 46.9853
CA -41.959 -15.4294 66.0287
CA -33.004 -19.9328 71.0218
CA -15.4177 4.77464 46.9181
CA -21.9566 10.1184 4.39105
CA -47.2697 5.2956 54.862
CA -22.9234 -3.36295 56.6334
CA -40.3708 -10.3627 66.6193
CA -26.6806 0.754932 40.8355
CA -33.2999 10.0701 88.094
CA -40.2344 11.9221 83.2246
CA -26.4233 9.54733 57.414
CA -50.1117 12.3471 49.3264
CA -36.7731 -4.58124 46.33
CA -39.3205 8.41751 39.9349
CA 0.0665069 17.7188 16.7384
CA -30.5655 4.73496 65.6864
CA -28.8748 -0.15054 57.0706
CA -11.0184 10.4279 32.2753
CA -53.5414 19.8221 49.8387
CA -47.9066 20.1363 52.7178
CA -25.2704 -7.9134 60.4066
CA -45.6556 -2.69578 64.3647
CA -27.4666 -24.0321 52.5207
CA -38.7919 12.132 41.0353
CA -13.249 16.1302 9.09313
CA -30.1006 -19.8317 47.766
CA -23.8279 24.0326 67.9111
CA -36.7674 23.3987 57.4091
CA -46.6786 -9.03838 65.9943
CA -47.9172 29.0011 72.9675
CA -50.6091 17.4091 53.0862
CA 11.0478 1.92314 -1.32334
CA -30.8932 17.0278 51.3699
CA -27.0611 0.556944 53.1358
CA -36.284 9.98823 86.8157
CA -33.6084 18.3751 78.8107
CA -34.6354 17.8912 80.7077
CA -2.28866 31.9794 17.4225
CA -38.9332 9.44145 35.8189
CA -12.5694 -11.4579 50.4642
CA -33.3822 13.8871 61.0543
CA 2.44897 11.1493 0.330217
CA -50.8662 22.8787 64.2122
CA -51.9458 19.0961 70.4657
CA -13.407 3.49774 36.0327
CA -18.4137 6.22624 34.189
CA 9.83154 6.2472 2.08776
CA -28.8672 21.156 66.8943
CA -35.0831 4.457 67.2845
CA -21.032 7.2922 55.6888
CA -42.5474 13.3316 60.8704
CA -47.0216 0.799441 65.1533
CA -32.1424 -26.4416 49.5369
CA -37.5191 1.22084 68.4385
CA -16.5539 13.0947 64.3253
CA -58.4008 19.7009 45.7206
CA -23.4422 -16.5709 49.9712
CA -18.2655 3.52345 44.8092
CA -20.0572 14.1909 35.3854
CA -50.5052 8.16646 69.2477
CA -35.1185 20.844 66.5802
CA -13.7409 -10.4179 54.7585
CA -43.8621 -6.40475 89.5185
CA -42.6892 12.3181 42.9357
CA -21.5625 17.4889 36.7352
CA -39.4485 12.5795 74.9809
CA -18.5953 2.22447 57.0464
CA -26.994 9.72258 37.094
CA -33.5373 -12.516 63.663
CA -60.9429 18.7911 56.6288
CA -28.4883 10.6551 90.7236
CA -38.612 7.33378 52.6335
CA -36.025 -18.1812 49.0591
CA -37.2541 -2.95374 84.6527
CA -17.3757 5.72067 58.8938
CA -28.7623 -26.9656 48.8035
CA -25.9603 17.3077 59.8757
CA -42.9148 2.5354 46.5041
CA -38.2505 -15.0471 45.6891
CA -42.1483 -12.0278 67.1575
CA -27.2749 25.6423 67.1559
CA -28.2629 5.42591 48.1689
CA -36.2268 17.6164 60.2762
CA -47.1903 12.4073 41.0159
CA -34.0991 2.28923 62.5907
CA -25.5557 3.3865 70.8421
CA -15.5793 13.1469 58.7267
CA -27.6977 -4.3663 61.3385
CA -15.0566 8.57278 61.1085
CA -36.8082 2.15513 48.4207
CA -44.2057 12.3713 60.8549
CA -0.562106 18.5098 4.91995
CA -30.502 -9.81563 65.4003
CA -17.647 -0.399475 68.6923
CA -39.0912 -4.10118 45.794
CA -39.3666 4.56149 51.6237
CA -41.8243 -1.56742 68.0839
CA -31.1543 4.4834 54.9257
CA -15.0874 35.868 16.8158
CA -17.4121 5.04688 68.0123
CA -45.7916 21.9686 67.5986
CA -11.5459 10.4753 53.0185
CA -13.0833 -9.05264 52.2133
CA -41.8753 19.9894 65.9304
CA -14.8742 11.2017 43.0959
CA -48.545 16.2927 53.0936
CA -50.6322 11.7424 54.4177
CA -26.0538 -20.7886 53.5148
CA 2.02271 33.7171 18.6827
CA -27.4427 13.9095 52.2942
CA -31.3657 2.67001 84.8176
CA -17.3347 -3.32038 43.5922
CA -40.3213 14.8797 48.3633
CA 2.93931 25.4644 14.6128
CA -47.493 14.7006 46.6764
CA 3.17405 30.6028 16.5191
CA -56.2695 18.6665 53.9814
CA -34.323 -1.38876 74.3579
CA -56.0436 20.8681 46.0122
CA -21.1862 21.5163 51.9396
CA -21.8792 9.88198 68.5904
CA -31.4245 10.3272 83.2908
CA -42.4786 8.55128 46.878
CA -41.6013 -7.34271 51.8968
CA -24.6057 21.736 48.4405
CA -29.9115 5.43567 46.3701
CA -22.7691 13.3616 41.5466
CA -22.4571 12.4371 51.2685
CA -54.8961 17.31 48.2489
CA -14.1517 12.4414 51.4918
CA -16.6523 19.48 47.6656
CA -25.2784 23.0682 50.3835
CA -40.6218 22.4636 65.7982
CA -30.5718 15.8079 47.5187
CA -35.0748 -1.67897 35.8856
CA -18.6535 23.298 15.4692
CA -28.2526 19.9797 50.1386
CA -42.6377 15.8912 72.6368
CA -15.0355 -6.20762 56.7971
CA -14.575 24.3389 20.2738
CA -36.0881 10.4023 62.2849
CA -14.56 10.3826 45.5793
CA -11.4349 14.4202 3.00202
CA -14.529 -4.139 53.0587
CA -1.76501 16.8035 6.14339
CA -45.3673 1.15495 71.7631
CA -38.8465 3.93249 69.3432
CA -15.633 13.3905 18.8188
CA -48.059 -4.46665 63.4074
CA -15.3334 27.1503 16.2828
CA -48.6342 -3.38757 68.02
CA -29.87 -14.493 64.4767
CA -36.5515 24.2702 50.426
CA -31.3869 -1.76938 38.8701
CA -38.7962 -15.3638 48.3343
CA -37.0415 11.1404 57.2967
CA -40.4628 -7.15494 43.4711
CA -33.4016 6.01008 79.7789
CA -38.9063 26.8007 47.3103
CA -32.2739 -13.9034 63.4764
CA -17.8683 -8.26839 43.8397
CA -15.3669 7.55117 53.9748
CA -39.0634 10.9465 55.6263
CA -16.7175 -3.0535 41.519
CA -37.7478 -1.67476 62.1318
CA -36.0217 3.95189 83.3268
CA -17.0118 -7.66329 42.3564
CA -9.44704 13.7222 52.1164
CA -39.4826 -9.73925 44.9182
CA -33.1395 -6.91115 58.2268
CA -30.819 2.01975 81.568
CA -41.2152 -8.96383 58.2645
CA -41.6713 21.2229 42.0258
CA -5.27364 13.1177 4.2844
CA -0.533832 8.5274 2.78896
CA -36.7924 6.58979 90.8254
CA 5.33272 30.0695 17.1771
CA -3.59476 33.6737 19.9382
CA -44.5005 -0.621545 60.8413
CA -46.0295 3.32971 62.6125
CA -31.2326 1.27472 64.7052
CA 5.25819 7.10786 1.35787
CA -29.1805 0.490214 77.922
CA 5.72745 29.5169 19.7391
CA -35.4229 8.95888 88.0703
CA -33.3218 -16.0529 54.0593
CA -37.129 8.97575 50.2541
CA -31.4068 7.7583 71.9042
CA -39.6572 1.88311 84.8353
CA -33.8692 -13.3934 58.3359
CA -25.9494 -14.807 54.5284
CA -23.5576 9.52303 1.33848
CA -38.2582 -2.34329 50.6503
CA -6.93059 -4.54206 55.2436
CA -37.3682 14.084 77.5896
CA -39.8368 8.10328 54.6056
CA -43.6313 14.9941 50.3845
CA -15.7186 14.0204 30.423
CA -45.8259 12.4086 63.7858
CA -50.7663 -1.5379 64.4403
CA -3.68647 8.86479 3.3137
CA -25.484 5.44768 63.1808
CA -33.8019 -7.82277 53.0174
CA -46.4769 3.48011 59.0766
CA -33.9403 -9.16114 65.3695
CA -31.3282 11.1322 47.142
CA -27.8045 0.971375 49.201
CA -9.76362 9.51673 54.3608
CA -33.784 -8.8606 67.2571
CA -31.565 20.2105 50.9368
CA -41.2458 22.9436 61.8102
CA -38.6662 -9.36199 68.6653
CA -32.383 -18.3724 56.3387
CA -44.1022 5.37065 61.4602
CA -25.0363 -14.7124 52.2383
CA 5.41817 34.8676 15.7203
CA 0.122727 28.7482 19.1937
CA -31.8897 11.9186 69.0499
CA -33.7584 -5.34698 64.5072
CA -39.8579 -0.364017 75.0029
CA -17.7707 7.4291 29.5941
CA -13.6101 13.735 59.1232
CA -19.9345 -5.83362 38.8861
CA -17.782 16.0945 57.7663
CA -34.0243 10.6408 62.8905
CA -13.8336 -9.52139 42.0359
CA -27.2882 20.9685 64.9425
CA -20.2553 -6.9385 60.9014
CA -29.7287 7.40902 53.0197
CA -40.5289 6.30905 48.9504
CA -39.983 13.7638 60.6055
CA -6.27049 12.89 7.4088
CA -37.3274 13.7786 72.8848
CA -2.65153 15.9463 16.9252
CA -33.0276 23.5895 77.0549
CA -24.008 -3.18365 53.6953
CA -22.8003 -1.02258 42.7241
CA -11.461 9.61032 43.954
CA -29.0822 9.2339 62.8004
CA -6.76667 18.121 12.3242
CA -28.2749 0.520347 66.0843
CA -15.5813 20.3687 19.573
CA -33.4015 -19.9524 60.0381
CA -42.5507 24.8073 70.8636
CA -50.5978 8.69085 52.0416
CA -35.9731 7.70022 75.3123
CA -44.3274 -2.64167 88.315
CA -12.7865 12.3715 36.4329
CA 5.67531 27.276 16.6577
CA -47.9659 24.2371 71.4305
CA -12.7496 8.49383 41.1455
CA -14.1922 -12.0981 58.7998
CA -32.2872 21.8301 57.8577
CA -35.6221 20.9922 84.5895
CA -42.6184 1.46415 84.8761
CA -16.1465 1.09356 59.6807
CA -47.2113 15.6257 59.0098
CA -16.2745 -8.24299 37.1597
CA -25.1583 7.41608 63.2808
CA -25.3552 20.6736 62.0735
CA -11.2482 15.0853 8.44162
CA -23.1563 24.9947 51.7325
CA -36.4114 -6.98525 58.9839
CA -46.4333 14.5008 38.626
CA -35.9809 16.1874 80.6639
CA -23.4723 4.65717 66.3774
CA -13.4973 -2.4272 37.5809
CA -36.4881 0.556716 38.8063
CA -11.279 -2.70824 52.1352
CA -38.6872 -7.40689 69.5807
CA -26.5827 4.9707 58.3902
CA -0.293662 28.1133 17.2903
CA -0.737711 8.15776 4.64375
CA -42.4887 13.509 69.7296
CA -32.9606 25.9685 52.9544
CA 1.59125 23.9588 15.6618
CA -50.1948 10.0886 44.2554
CA -34.1845 3.28788 70.2037
CA -18.1718 5.89975 42.5383
CA -47.8465 12.4788 43.1728
CA -42.5402 -8.35762 69.3574
CA -43.4403 18.5304 41.0031
CA -39.5549 1.99879 47.5982
CA -35.7878 -16.4944 57.3843
CA -38.7681 -6.15903 88.2766
CA -10.8047 29.1666 16.2652
CA -31.3402 20.9394 79.687
CA -11.7185 -6.24479 51.6392
CA -19.2238 -8.98566 60.0453
CA -4.19589 13.5052 18.75
CA -33.0446 -24.6325 47.4785
CA -25.0775 21.2947 70.1738
CA -30.4251 19.1864 76.8229
CA -34.1903 19.9608 51.6368
CA -24.1531 18.4161 61.4052
CA -48.0838 20.9298 72.5606
CA -40.117 -1.04482 88.685
CA -33.8978 16.3442 69.6926
CA -16.3432 16.9392 19.8969
CA -25.7033 1.72293 47.3705
CA -29.3958 -0.00484017 73.0174
CA -19.2742 12.9195 33.0976
CA -59.9785 13.9752 57.4679
CA -21.1728 3.88011 41.5486
CA -44.9675 -1.3357 85.7136
CA -43.7629 -3.75954 73.1314
CA -34.8597 -3.61418 43.281
CA -29.2271 9.1677 71.938
CA 1.82034 20.2964 15.8286
CA -19.492 -7.01294 56.7076
CA -51.01 6.35646 43.8278
CA -40.5643 12.3539 42.5842
CA -31.5704 -22.6025 56.1895
CA -26.2229 13.4306 39.461
CA -26.2581 8.51954 30.8431
CA -54.0527 17.0729 58.4115
CA -41.8272 5.70994 47.7661
CA -19.0323 6.59293 64.2509
CA -3.11041 20.6916 15.0869
CA 9.8442 0.0981286 -1.37523
CA -40.1172 22.6527 70.3085
CA -36.9899 14.2284 70.7959
CA -48.8911 12.0919 67.6073
CA -39.1967 -6.87881 53.8115
CA -12.3631 17.8078 18.6391
CA -12.7428 13.0817 54.9465
CA -58.8501 19.1248 49.8074
CA -25.2097 18.84 43.8764
CA -32.6224 1.88248 31.1282
CA -50.0104 18.7022 68.2034
CA -22.6453 18.4133 48.7718
CA -36.8335 2.66262 58.7717
CA -47.084 26.091 67.5709
CA -18.4663 9.5729 8.40736
CA -53.8147 20.3423 52.5179
CA -34.3046 1.81563 80.4862
CA -18.5038 -5.3862 59.431
CA -12.6219 33.4533 15.7454
CA -33.8708 -21.6528 55.5142
CA -25.4928 -10.6507 56.3448
CA -9.68165 14.4946 17.2894
CA -36.923 -22.4368 57.5662
CA -46.1662 13.2184 55.2531
CA -14.957 6.11236 44.1628
CA -18.5944 18.445 62.4836
CA -39.3847 16.5658 50.2574
CA -31.971 17.587 80.4582
CA -44.7219 -6.31265 53.7551
CA -11.6119 17.1074 29.718
CA -22.2062 0.386574 51.6512
CA -10.383 12.9347 41.8079
CA 0.590264 31.1724 18.469
CA -33.2326 6.8694 85.0852
CA -35.0517 20.0292 59.4737
CA -30.3561 9.56084 53.3494
CA -38.9603 11.4098 62.0364
CA -42.7916 -1.60158 60.5678
CA -17.0263 17.2312 33.0565
CA -29.7579 -2.96869 33.3991
CA -29.9317 -5.73359 66.5865
CA -36.1495 4.42601 73.335
CA -24.5266 5.25332 37.6578
CA -18.0122 13.1967 58.5608
CA -13.128 -1.09279 58.6012
