489

CA -16.2816 11.5026 9.86657
CA -41.6676 24.4319 49.65
CA -39.125 10.617 42.0016
CA -37.9845 10.1383 53.4259
CA -22.5673 -8.26968 55.6212
CA -16.7792 14.614 37.6687
CA -2.72022 27.0528 14.4108
CA -3.77088 25.9673 19.2267
CA -42.9421 -6.56242 52.9094
CA -16.7254 -3.09577 50.4249
CA -22.9473 8.8218 56.2435
CA -2.82661 18.2927 17.0672
CA -23.8584 11.4088 34.5769
CA -29.995 17.7779 68.8748
CA -36.6687 23.0944 88.6776
CA -6.29759 16.2601 9.03912
CA -23.7302 4.60711 32.6037
CA -16.3787 22.5654 15.8764
CA -28.2828 3.29259 32.4634
CA -50.8225 11.7292 67.2423
CA -19.057 14.0494 46.1315
CA -33.3737 13.3609 53.1855
CA -34.6422 -0.455028 59.4748
CA -11.1647 18.6647 47.9581
CA -9.75644 27.4104 17.2403
CA -29.9115 6.13775 70.9036
CA -39.936 22.2058 48.6634
CA -29.7407 29.4606 52.5613
CA -33.2348 -2.24105 33.9508
CA -16.415 19.7049 61.0337
CA -28.9834 -11.8304 59.7668
CA -3.03819 33.3153 19.7084
CA -13.8239 20.076 20.647
CA -40.3044 18.7376 52.1568
CA -26.9576 27.6604 50.3786
CA -36.0724 -8.24478 62.1735
CA -25.3937 11.7118 53.2444
CA -22.6728 4.35724 34.5651
CA -12.5012 -1.93927 59.2949
CA -18.5145 27.6351 19.4571
CA -15.1579 23.2042 21.9993
CA -26.8186 -0.853893 56.3432
CA -20.972 17.0217 60.9
CA -18.1219 21.2363 16.4519
CA -24.0862 11.7653 63.4377
CA -38.1578 0.0549049 62.5988
CA -37.0521 -2.40338 54.8373
CA -32.6924 -21.2182 49.158
CA -46.8581 3.99128 57.1092
CA -11.1507 14.0002 53.7891
CA -49.8727 9.98655 54.7551
CA -35.7123 17.674 63.851
CA -29.8804 -17 69.157
CA -43.5534 9.88777 45.3132
CA -45.8778 2.95959 87.6759
CA -23.2377 10.5918 3.01128
CA -8.92163 17.8094 11.5149
CA -20.2338 10.1317 5.02871
CA -13.82 23.4637 24.9235
CA -35.5296 6.16886 77.4721
CA -3.81645 19.8987 16.8398
CA -22.2487 1.66395 41.1444
CA -21.9448 20.3953 70.9206
CA -33.5005 6.13409 69.8275
CA -10.9037 11.6194 38.7937
CA -57.2797 17.5448 48.0171
CA -31.7106 0.286824 39.4438
CA -15.1603 18.6631 45.9723
CA -26.2804 -3.57678 49.9484
CA -48.1375 11.7461 52.7507
CA -44.2612 1.07326 66.4529
CA -27.7163 7.28972 34.4389
CA -17.6575 -3.31939 60.5389
CA -28.5014 -0.416602 44.5382
CA -29.8295 -9.36009 54.6986
CA -28.7196 7.39484 71.8609
CA -34.6392 15.4644 71.7265
CA -52.1226 12.4429 45.8004
CA -50.9689 25.4201 66.6077
CA -45.8271 17.2644 68.984
CA -53.2282 21.5819 48.5697
CA -38.7169 -0.234498 65.0808
CA -44.824 10.0397 84.0485
CA -16.412 -7.46444 50.582
CA -35.4671 -3.34901 49.4236
CA -35.8229 -13.2583 50.8867
CA -31.1627 15.1738 49.5286
CA -14.2197 16.8411 53.8474
CA -42.4283 -6.89287 91.5243
CA -31.3206 2.30717 42.9187
CA -30.7295 1.89674 35.762
CA -37.1921 20.2084 79.3736
CA -32.2452 22.8494 56.1244
CA -12.2076 11.8623 0.672463
CA -17.3278 -12.4356 44.0539
CA -34.1295 3.50483 89.3392
CA -38.7152 11.231 76.481
CA -48.3389 0.564943 69.1578
CA -27.1838 8.19525 55.615
CA -19.6132 16.2211 68.4781
CA -15.7111 14.0729 46.76
CA -20.8997 7.12826 44.6745
CA -34.4645 1.52413 66.7402
CA -33.1791 -6.26511 54.7675
CA -37.3736 4.04694 67.3562
CA -46.3838 10.134 47.4661
CA -23.775 7.93398 34.8718
CA -31.4221 2.45883 37.6998
CA -40.34 2.19949 45.3922
CA -14.9629 -1.9519 52.9722
CA -37.0693 14.1998 54.7571
CA -30.7831 7.10864 66.6231
CA -23.7463 20.8449 59.9833
CA -20.2471 19.375 43.0539
CA -45.8813 -5.52505 83.8484
CA -18.5393 20.0645 18.4646
CA -52.4445 13.5829 63.0232
CA -39.1678 14.7518 41.8749
CA -48.739 14.0439 65.8
CA -50.0123 -7.8169 67.2517
CA -37.9091 -4.04707 44.0647
CA -31.0856 18.5105 58.7663
CA -19.0879 14.6532 64.4322
CA -13.8395 18.11 52.1415
CA -37.7213 6.20608 46.9853
CA -41.959 -15.4294 66.0287
CA -33.004 -19.9328 71.0218
CA -31.4868 7.18726 87.3357
CA -21.9566 10.1184 4.39105
CA -25.7914 12.7099 80.3994
CA -20.5519 -0.843934 53.9286
CA -20.7727 14.4214 63.6017
CA -26.6806 0.754932 40.8355
CA -33.2999 10.0701 88.094
CA -40.2344 11.9221 83.2246
CA -26.4233 9.54733 57.414
CA -35.5174 3.51719 79.6211
CA -21.199 15.6799 38.2685
CA -39.3205 8.41751 39.9349
CA 0.0665069 17.7188 16.7384
CA -26.4052 8.11441 47.9666
CA -28.8748 -0.15054 57.0706
CA -41.8953 -7.86355 50.3
CA -53.5414 19.8221 49.8387
CA -21.4386 21.5765 55.5174
CA -25.2704 -7.9134 60.4066
CA -23.1365 6.73157 53.2187
CA -44.4075 -9.42368 85.6543
CA -22.6992 12.7848 48.363
CA -13.249 16.1302 9.09313
CA -30.1006 -19.8317 47.766
CA -59.448 13.2061 45.1899
CA -30.1231 -9.84494 60.8773
CA -40.6185 -1.9856 87.0233
CA -55.1379 20.9401 48.7493
CA -20.2494 18.4511 63.615
CA 11.0478 1.92314 -1.32334
CA -32.0127 21.3831 46.4831
CA -35.7924 2.5005 89.6256
CA -36.284 9.98823 86.8157
CA -38.2315 7.64615 44.0667
CA -29.1021 8.84519 28.397
CA -2.28866 31.9794 17.4225
CA -38.9332 9.44145 35.8189
CA -41.542 6.23085 73.0064
CA -33.3822 13.8871 61.0543
CA 2.44897 11.1493 0.330217
CA -18.5053 -11.0149 40.8289
CA -40.4186 -5.48446 67.7391
CA -18.6983 -2.33088 45.1696
CA -18.4137 6.22624 34.189
CA 9.83154 6.2472 2.08776
CA -21.7486 6.68831 57.4302
CA -35.0831 4.457 67.2845
CA -21.032 7.2922 55.6888
CA -30.654 -0.197952 59.6184
CA -18.1403 -1.53611 42.9058
CA -32.1424 -26.4416 49.5369
CA -46.558 8.55423 37.9904
CA -56.3672 13.9237 42.7773
CA -46.1094 21.6233 71.5038
CA -50.6094 16.4404 69.0035
CA -39.8788 -2.93071 83.7255
CA -20.0572 14.1909 35.3854
CA -47.2385 -2.19636 75.5371
CA -36.0845 21.54 59.8162
CA -13.7409 -10.4179 54.7585
CA -44.5725 -1.32919 77.2846
CA -42.6892 12.3181 42.9357
CA -30.135 -3.2152 68.1017
CA -32.2263 -8.32325 57.7323
CA -18.5953 2.22447 57.0464
CA -16.3421 10.9479 55.0858
CA -39.2044 -3.81182 53.3254
CA -35.5068 -10.2107 65.5612
CA -36.7394 18.0945 75.3702
CA -38.612 7.33378 52.6335
CA -36.025 -18.1812 49.0591
CA -37.2541 -2.95374 84.6527
CA -17.3757 5.72067 58.8938
CA -39.1701 23.3913 72.1609
CA -30.0781 7.44778 44.5311
CA -51.5008 14.5067 40.6652
CA -41.7288 -9.44149 56.2832
CA -55.0025 18.2937 43.9249
CA -36.8759 18.6011 62.8304
CA -31.0866 5.10533 48.7286
CA -25.4727 20.7063 46.5553
CA -47.1903 12.4073 41.0159
CA -26.9261 -15.8957 65.7091
CA -25.5557 3.3865 70.8421
CA -48.3396 7.67401 51.1644
CA -18.5352 -0.561969 46.175
CA -15.0566 8.57278 61.1085
CA -19.3574 -11.1872 48.4906
CA -11.9351 19.0184 27.7444
CA -43.4779 19.4836 44.2839
CA -30.502 -9.81563 65.4003
CA -41.9509 5.98252 42.6939
CA -39.0912 -4.10118 45.794
CA -39.3666 4.56149 51.6237
CA -17.4484 -0.460711 55.158
CA -47.1322 12.1518 61.3954
CA -52.1471 13.0548 71.2067
CA -47.5618 6.30757 39.7011
CA -23.9726 -1.5062 57.544
CA -29.1815 9.44525 43.4935
CA -42.3689 26.2648 73.7646
CA -19.5219 8.37709 63.594
CA -14.8742 11.2017 43.0959
CA -28.1792 9.694 48.3546
CA -30.836 -0.130227 74.2481
CA -34.8951 19.8863 58.8374
CA 2.02271 33.7171 18.6827
CA -34.6013 4.33435 27.9548
CA -31.3657 2.67001 84.8176
CA -24.7071 17.4973 51.8468
CA -41.0465 16.6302 52.8862
CA 2.93931 25.4644 14.6128
CA -44.4262 -8.93565 42.5071
CA 3.17405 30.6028 16.5191
CA -51.9527 13.2644 39.3731
CA -34.323 -1.38876 74.3579
CA -31.1081 -16.5523 65.1603
CA -52.9724 13.2673 53.1597
CA -40.3736 -11.6665 47.9418
CA -31.4245 10.3272 83.2908
CA -39.2477 7.42335 56.6863
CA -32.7605 22.8066 59.4238
CA -31.3832 -2.77045 74.2359
CA -29.9115 5.43567 46.3701
CA -22.7691 13.3616 41.5466
CA -26.8305 -12.5923 60.1244
CA -39.8614 6.83644 76.8172
CA -14.1517 12.4414 51.4918
CA -16.6523 19.48 47.6656
CA -16.4667 16.4706 55.5586
CA -40.6218 22.4636 65.7982
CA -30.5718 15.8079 47.5187
CA -38.0951 -8.07894 63.7881
CA -20.2774 22.6679 16.7435
CA -28.2526 19.9797 50.1386
CA -55.7818 17.6674 57.0607
CA -15.0355 -6.20762 56.7971
CA -42.0905 -12.1462 42.0549
CA -45.5046 18.4738 39.8918
CA -15.6078 15.1963 68.8721
CA -11.4349 14.4202 3.00202
CA -14.529 -4.139 53.0587
CA -45.1648 13.6565 43.2486
CA -45.3673 1.15495 71.7631
CA -15.0358 14.6621 38.8075
CA -15.633 13.3905 18.8188
CA -48.059 -4.46665 63.4074
CA -15.3334 27.1503 16.2828
CA -48.6342 -3.38757 68.02
CA -29.87 -14.493 64.4767
CA -36.5515 24.2702 50.426
CA -31.3869 -1.76938 38.8701
CA -15.8368 -10.3261 41.8739
CA -37.0415 11.1404 57.2967
CA -40.4628 -7.15494 43.4711
CA -36.4746 9.1046 42.9199
CA -29.1744 -28.8893 47.015
CA -34.8952 -21.8144 52.795
CA -17.8683 -8.26839 43.8397
CA -42.4589 -8.16543 46.0634
CA -30.7489 13.2933 87.6304
CA -33.9593 21.534 54.7322
CA -39.8113 25.6772 46.9624
CA -36.0217 3.95189 83.3268
CA -17.0118 -7.66329 42.3564
CA -26.4006 -2.11085 47.8071
CA -47.6418 -4.9414 80.9325
CA -26.8381 1.07336 64.1552
CA -30.819 2.01975 81.568
CA -23.1541 17.5897 63.8462
CA -41.6011 15.8852 50.7256
CA -5.27364 13.1177 4.2844
CA -0.533832 8.5274 2.78896
CA -0.116313 14.8919 16.2263
CA 5.33272 30.0695 17.1771
CA -14.4351 21.3259 48.8529
CA -16.3856 5.0833 45.1061
CA -46.0295 3.32971 62.6125
CA -44.0811 4.05499 54.3607
CA 5.25819 7.10786 1.35787
CA -27.2943 0.268 60.5714
CA 5.72745 29.5169 19.7391
CA -6.39749 25.1984 22.568
CA -19.8536 22.9986 13.6325
CA -32.3946 -1.9128 71.7967
CA -31.4068 7.7583 71.9042
CA -39.6572 1.88311 84.8353
CA -33.8692 -13.3934 58.3359
CA -27.2954 9.93278 81.2384
CA -23.5576 9.52303 1.33848
CA -22.1131 17.4447 44.6726
CA -12.5676 8.4883 55.8619
CA -37.3682 14.084 77.5896
CA -39.8368 8.10328 54.6056
CA 5.22471 31.7445 20.7713
CA -15.7186 14.0204 30.423
CA -45.8259 12.4086 63.7858
CA 0.010155 5.1973 2.41177
CA -3.68647 8.86479 3.3137
CA -25.484 5.44768 63.1808
CA -30.9025 -0.591044 48.1852
CA -46.4769 3.48011 59.0766
CA -21.8308 15.1949 41.2956
CA -31.3282 11.1322 47.142
CA -29.6094 5.1624 58.6079
CA -12.4364 1.88364 43.8742
CA -39.0948 22.5333 44.9208
CA -13.8799 8.45761 33.4213
CA -41.2458 22.9436 61.8102
CA -37.7751 -9.64914 52.1941
CA -32.383 -18.3724 56.3387
CA -18.3758 9.45758 64.9333
CA -35.5187 16.7604 44.4109
CA 5.41817 34.8676 15.7203
CA 0.122727 28.7482 19.1937
CA -41.4804 8.36283 57.8731
CA -33.7584 -5.34698 64.5072
CA -28.8317 -9.48111 34.8785
CA -39.8955 -0.976343 67.5796
CA -13.6101 13.735 59.1232
CA -49.4846 -0.82546 63.188
CA -25.4085 -10.0582 57.3171
CA -44.439 17.5483 66.7011
CA -13.8336 -9.52139 42.0359
CA -27.2882 20.9685 64.9425
CA -43.9548 -12.3238 45.1276
CA -29.7287 7.40902 53.0197
CA -19.852 1.75229 54.1795
CA -36.3713 -21.7989 71.3392
CA -6.27049 12.89 7.4088
CA -37.3274 13.7786 72.8848
CA -2.65153 15.9463 16.9252
CA -20.8341 18.7752 60.2788
CA -24.008 -3.18365 53.6953
CA -7.0125 8.23963 2.82468
CA -40.6295 15.069 75.4122
CA -29.0822 9.2339 62.8004
CA -6.76667 18.121 12.3242
CA -28.2749 0.520347 66.0843
CA -15.5813 20.3687 19.573
CA -33.4015 -19.9524 60.0381
CA -42.5507 24.8073 70.8636
CA -40.0851 27.5405 73.9158
CA -35.9731 7.70022 75.3123
CA -44.3274 -2.64167 88.315
CA -36.0261 0.214717 80.5218
CA 5.67531 27.276 16.6577
CA -47.9659 24.2371 71.4305
CA -34.364 21.0062 68.9919
CA -26.339 21.178 71.5712
CA -32.5506 17.5037 70.6484
CA -35.6221 20.9922 84.5895
CA -39.3613 24.6146 92.2114
CA -47.2241 8.35127 34.6805
CA -30.756 -0.591651 61.3937
CA -16.2745 -8.24299 37.1597
CA -32.8211 16.9953 47.9652
CA -45.1427 3.95877 57.7463
CA -11.2482 15.0853 8.44162
CA -33.234 -3.34392 35.3744
CA -36.3951 20.3286 44.2451
CA -46.4333 14.5008 38.626
CA -26.4689 25.1841 51.5893
CA -23.4723 4.65717 66.3774
CA -13.4973 -2.4272 37.5809
CA -37.2894 18.3554 81.1431
CA -43.7543 16.7163 57.0786
CA -50.7167 14.5712 56.8799
CA -50.7522 5.5395 55.0767
CA -0.293662 28.1133 17.2903
CA -0.737711 8.15776 4.64375
CA -42.4887 13.509 69.7296
CA -32.9606 25.9685 52.9544
CA 1.59125 23.9588 15.6618
CA -50.1948 10.0886 44.2554
CA -54.2591 13.9438 45.4853
CA -27.3399 19.4846 58.9066
CA -33.3631 1.00472 76.6126
CA -37.0696 -5.63895 38.7555
CA -50.3153 17.0734 66.1064
CA -39.5549 1.99879 47.5982
CA -35.7878 -16.4944 57.3843
CA -38.7681 -6.15903 88.2766
CA -10.8047 29.1666 16.2652
CA -34.9927 9.56788 35.697
CA -42.3893 19.2432 53.1213
CA -19.2238 -8.98566 60.0453
CA -4.19589 13.5052 18.75
CA -25.4258 9.75936 59.2406
CA -45.9572 23.4223 67.3847
CA -15.9269 -4.61993 40.3058
CA -12.2307 -4.83749 47.8723
CA -24.1531 18.4161 61.4052
CA -48.0838 20.9298 72.5606
CA -39.1916 6.8086 88.9132
CA -33.0854 3.01199 74.5674
CA -38.9326 -12.0152 62.8824
CA -44.1195 20.6962 48.7252
CA -29.3958 -0.00484017 73.0174
CA -24.7074 19.7705 50.076
CA -37.4373 -5.62322 54.3615
CA -21.1728 3.88011 41.5486
CA -44.9675 -1.3357 85.7136
CA -43.7629 -3.75954 73.1314
CA -21.448 -3.99914 48.2585
CA -31.7346 9.63911 27.5076
CA -45.9636 24.7477 74.8363
CA -20.5832 8.83612 45.949
CA -25.2543 -3.29194 51.8052
CA -18.9986 16.8321 43.1801
CA -22.2667 5.10824 49.1112
CA -24.007 6.44704 48.9567
CA -15.1076 14.7415 50.4736
CA -54.0527 17.0729 58.4115
CA -26.814 3.63097 48.4644
CA -19.0323 6.59293 64.2509
CA -3.11041 20.6916 15.0869
CA 9.8442 0.0981286 -1.37523
CA -40.1172 22.6527 70.3085
CA -20.4189 4.46081 45.3102
CA -31.1291 -6.70356 38.8675
CA -33.2027 21.0924 48.0535
CA -12.3631 17.8078 18.6391
CA -12.7428 13.0817 54.9465
CA -34.9065 0.232462 46.61
CA -33.4751 12.149 58.8873
CA -32.6224 1.88248 31.1282
CA -27.7632 14.8804 70.573
CA -44.0961 2.68138 61.9304
CA -33.7504 17.3608 46.1294
CA -52.5443 16.9851 53.3907
CA -18.4663 9.5729 8.40736
CA -53.8147 20.3423 52.5179
CA -45.0659 8.83607 57.1488
CA -36.9387 -12.4663 55.901
CA -12.6219 33.4533 15.7454
CA -29.6998 13.0299 89.6148
CA -20.393 4.71398 52.2777
CA -9.68165 14.4946 17.2894
CA -36.923 -22.4368 57.5662
CA -46.1662 13.2184 55.2531
CA -40.4783 4.74242 69.1841
CA -40.0649 1.28091 64.6222
CA -38.5727 16.9286 75.758
CA -51.7955 -6.57156 68.2171
CA -44.7219 -6.31265 53.7551
CA -11.6119 17.1074 29.718
CA -22.2062 0.386574 51.6512
CA -24.1966 -10.511 48.4084
CA 0.590264 31.1724 18.469
CA -38.8647 -13.7978 49.9055
CA -22.1898 -7.07489 59.5289
CA -23.5265 21.2388 47.8567
CA -38.4601 7.02445 79.8767
CA -30.0649 8.55689 34.0913
CA -17.0263 17.2312 33.0565
CA -29.7579 -2.96869 33.3991
CA -29.9961 -19.1952 50.0912
CA -31.1599 10.4253 78.9327
CA -24.5266 5.25332 37.6578
CA -35.5777 -6.76133 67.9073
CA -42.0607 21.0359 50.4634
