489

CA -16.2816 11.5026 9.86657
CA -34.5616 8.38202 84.7956
CA -28.0217 -17.9475 67.9843
CA -8.29734 20.6077 21.2884
CA -22.5673 -8.26968 55.6212
CA -16.7792 14.614 37.6687
CA -50.2039 10.2909 47.9513
CA -3.77088 25.9673 19.2267
CA -38.2501 10.0468 84.0851
CA -35.6383 -2.4311 45.4511
CA -45.419 12.1924 42.0587
CA -2.82661 18.2927 17.0672
CA -23.8584 11.4088 34.5769
CA -29.995 17.7779 68.8748
CA -4.01325 -11.2113 52.7785
CA -6.29759 16.2601 9.03912
CA -9.56576 -14.1457 54.0667
CA -16.3787 22.5654 15.8764
CA -28.2828 3.29259 32.4634
CA -18.0697 3.25411 40.5873
CA -19.057 14.0494 46.1315
CA -25.7315 8.12416 31.5898
CA -34.6422 -0.455028 59.4748
CA -12.2669 -8.48085 53.5066
CA -9.75644 27.4104 17.2403
CA -27.5841 17.5289 55.4782
CA -11.9289 -15.3361 43.7743
CA -50.5052 8.06399 41.0443
CA -25.9267 0.72744 41.4754
CA -46.41 -0.968078 77.1869
CA -28.9834 -11.8304 59.7668
CA -3.03819 33.3153 19.7084
CA -13.8239 20.076 20.647
CA -40.3044 18.7376 52.1568
CA -20.0704 13.6839 34.5925
CA -13.5389 -14.2599 48.442
CA -12.3061 -6.67472 53.7262
CA -31.9332 -5.75548 46.7935
CA -22.1199 12.9576 30.2828
CA -18.5145 27.6351 19.4571
CA -46.6582 -10.9797 42.0711
CA -48.7045 10.8595 55.8613
CA -20.972 17.0217 60.9
CA -18.1219 21.2363 16.4519
CA -24.0862 11.7653 63.4377
CA -38.1578 0.0549049 62.5988
CA -37.0521 -2.40338 54.8373
CA -32.6924 -21.2182 49.158
CA -51.2731 13.2739 62.1553
CA -11.1507 14.0002 53.7891
CA -21.5183 4.57581 63.0394
CA -35.7123 17.674 63.851
CA -40.3431 -8.58134 41.1082
CA -31.446 10.9408 72.0733
CA -25.8707 -2.60626 66.0546
CA -23.2377 10.5918 3.01128
CA -8.92163 17.8094 11.5149
CA -28.2227 1.6085 52.1564
CA -13.82 23.4637 24.9235
CA -24.1706 -17.258 65.264
CA -3.81645 19.8987 16.8398
CA -40.5544 -4.97408 51.0249
CA -17.7651 0.261009 45.3356
CA -33.5005 6.13409 69.8275
CA -10.9037 11.6194 38.7937
CA -57.2797 17.5448 48.0171
CA -31.7106 0.286824 39.4438
CA -15.1603 18.6631 45.9723
CA -26.2804 -3.57678 49.9484
CA -48.1375 11.7461 52.7507
CA -30.6483 11.2551 58.7014
CA -27.7163 7.28972 34.4389
CA -17.6575 -3.31939 60.5389
CA -39.0019 -2.53525 82.9325
CA -17.617 23.1237 13.129
CA -38.5277 -10.3029 58.7957
CA -24.3401 -3.15866 56.5729
CA -25.2843 -9.54025 58.5154
CA -35.8999 19.283 51.0288
CA -45.8271 17.2644 68.984
CA -53.2282 21.5819 48.5697
CA -27.6679 15.6475 49.5104
CA -46.692 24.904 75.732
CA -38.919 -1.39992 84.4808
CA -35.4671 -3.34901 49.4236
CA -35.8229 -13.2583 50.8867
CA -31.1627 15.1738 49.5286
CA -32.817 4.10143 78.1903
CA -52.2079 15.2656 68.7222
CA -31.3206 2.30717 42.9187
CA -30.7295 1.89674 35.762
CA -37.1921 20.2084 79.3736
CA -50.7875 12.8223 65.3481
CA -12.2076 11.8623 0.672463
CA -17.3278 -12.4356 44.0539
CA -34.1295 3.50483 89.3392
CA -43.9475 14.3884 61.4743
CA -40.461 -4.54891 47.3202
CA -5.40498 14.8649 14.4847
CA -12.5186 -10.2421 57.4093
CA -41.8772 8.37786 79.7856
CA -35.2441 12.6047 43.875
CA -35.3061 5.32417 44.2798
CA -39.6356 -4.86032 62.8399
CA -17.6262 20.6959 54.6212
CA -44.4048 -9.93422 58.6
CA -23.775 7.93398 34.8718
CA -43.6516 -4.40266 50.5843
CA -40.34 2.19949 45.3922
CA -35.1793 -13.1819 62.6075
CA -36.5746 2.87127 87.6783
CA -30.7831 7.10864 66.6231
CA -6.95031 16.3549 17.5685
CA -20.2471 19.375 43.0539
CA -45.8813 -5.52505 83.8484
CA -18.5393 20.0645 18.4646
CA -34.5606 -0.34601 64.2781
CA -44.5607 0.837467 56.9961
CA -48.739 14.0439 65.8
CA -42.1123 26.236 69.5291
CA -37.9091 -4.04707 44.0647
CA -27.24 14.6829 67.5064
CA -19.0879 14.6532 64.4322
CA -13.8395 18.11 52.1415
CA -21.1012 -0.669065 49.0371
CA -14.8306 -12.967 52.4385
CA -32.4333 8.05569 66.7058
CA -31.0593 -14.9985 58.2957
CA -21.9566 10.1184 4.39105
CA -41.5491 10.6247 78.4293
CA -25.8958 -15.1486 61.382
CA -12.0231 13.6026 55.5274
CA -41.0073 6.10635 47.3837
CA -33.2999 10.0701 88.094
CA -40.2344 11.9221 83.2246
CA -26.4233 9.54733 57.414
CA -22.1552 5.70989 54.9415
CA -21.199 15.6799 38.2685
CA -39.7981 0.910354 59.7845
CA -37.0425 -1.17771 88.0244
CA -49.1393 1.17735 65.9697
CA -31.5157 26.1487 51.7159
CA -30.6314 16.3269 65.0905
CA -53.5414 19.8221 49.8387
CA -13.3848 12.2381 45.6898
CA -33.2411 21.711 56.6253
CA -32.7081 19.9788 57.3892
CA -35.1919 -16.2723 53.1665
CA -22.6992 12.7848 48.363
CA -13.249 16.1302 9.09313
CA -46.2279 1.06671 90.4085
CA -35.8416 14.9896 60.6925
CA -30.1231 -9.84494 60.8773
CA -14.4834 -11.4519 42.9695
CA -50.5531 20.0791 71.3174
CA -40.3663 -7.01869 51.5845
CA 11.0478 1.92314 -1.32334
CA -32.0127 21.3831 46.4831
CA -28.9134 15.3837 65.7361
CA -38.842 4.82897 71.2119
CA -46.448 11.1822 51.5543
CA -29.1021 8.84519 28.397
CA -2.28866 31.9794 17.4225
CA -38.9332 9.44145 35.8189
CA -35.0818 -8.26839 53.6474
CA -33.3822 13.8871 61.0543
CA -35.8235 7.49826 54.0809
CA -43.7171 25.4856 75.0531
CA -17.5757 -8.40899 38.146
CA -40.1261 4.65749 75.8142
CA -49.1949 26.6086 75.1682
CA 9.83154 6.2472 2.08776
CA -33.5229 16.2001 72.6745
CA -35.0831 4.457 67.2845
CA -21.032 7.2922 55.6888
CA -25.9864 1.12143 32.424
CA -39.494 -10.1949 36.4709
CA -20.6746 -2.86397 59.6097
CA -46.558 8.55423 37.9904
CA -35.5084 -4.28132 62.8297
CA -46.1094 21.6233 71.5038
CA -33.8483 -25.3993 51.7888
CA -33.2758 1.33421 78.5172
CA -21.2641 7.73704 62.6581
CA -42.4682 2.05498 85.9889
CA -36.0845 21.54 59.8162
CA -13.7409 -10.4179 54.7585
CA -41.0556 -6.14601 55.4037
CA -34.6575 -16.4134 50.0828
CA -30.135 -3.2152 68.1017
CA -32.2263 -8.32325 57.7323
CA -18.5953 2.22447 57.0464
CA -16.3421 10.9479 55.0858
CA -29.5545 -7.3405 64.4925
CA -14.9429 -2.05722 58.0291
CA -36.7394 18.0945 75.3702
CA -38.612 7.33378 52.6335
CA -38.0992 -14.3054 46.8017
CA -37.2541 -2.95374 84.6527
CA -21.5207 9.22881 43.5937
CA -30.977 -9.05728 51.5093
CA -55.11 19.0774 66.6913
CA -31.1784 9.99707 44.8166
CA -41.7288 -9.44149 56.2832
CA -55.0025 18.2937 43.9249
CA -36.8759 18.6011 62.8304
CA -31.0866 5.10533 48.7286
CA -48.6907 -0.908882 93.6508
CA -47.1903 12.4073 41.0159
CA -33.6994 1.02306 84.9407
CA -42.6316 -1.90063 73.98
CA -23.779 15.1717 42.3457
CA -20.5997 5.76608 57.9155
CA -15.0566 8.57278 61.1085
CA -19.3574 -11.1872 48.4906
CA -11.9351 19.0184 27.7444
CA -43.4779 19.4836 44.2839
CA -28.3402 26.477 54.6445
CA -41.9509 5.98252 42.6939
CA -39.0912 -4.10118 45.794
CA -39.3666 4.56149 51.6237
CA -38.1125 10.6021 86.2003
CA -30.9888 22.1751 57.8368
CA -52.1471 13.0548 71.2067
CA -47.5618 6.30757 39.7011
CA -41.4139 -2.69101 57.5986
CA -50.0337 17.5516 48.169
CA -25.4944 14.233 38.4233
CA -19.5219 8.37709 63.594
CA -47.5822 12.7621 47.8371
CA -47.4038 3.01176 78.0601
CA -48.6739 3.27001 68.9855
CA -34.8951 19.8863 58.8374
CA -40.7289 30.7417 72.9617
CA -48.6148 10.3078 61.342
CA -49.6813 -7.92997 85.861
CA -19.0358 23.2167 50.2705
CA -30.2611 15.7347 68.9418
CA 2.93931 25.4644 14.6128
CA -44.4262 -8.93565 42.5071
CA 3.17405 30.6028 16.5191
CA -45.2595 17.4832 53.8394
CA -16.5101 -3.19851 51.2954
CA -31.1081 -16.5523 65.1603
CA -15.7834 9.33338 53.7888
CA -13.9251 -11.7427 38.0196
CA -43.4082 5.1793 53.3343
CA -39.2477 7.42335 56.6863
CA -35.9239 12.8868 38.0831
CA -35.0224 -3.96461 72.0229
CA -29.9115 5.43567 46.3701
CA -29.4623 28.6331 54.5488
CA -23.6478 21.86 52.5348
CA -39.8614 6.83644 76.8172
CA -43.0635 17.1883 77.3992
CA -45.9072 6.33334 58.0688
CA -27.1487 8.55028 37.6074
CA -27.2479 5.18783 65.2129
CA -33.8159 6.53546 47.5663
CA -38.0951 -8.07894 63.7881
CA -20.2774 22.6679 16.7435
CA -28.2526 19.9797 50.1386
CA -45.9222 20.0421 43.946
CA -15.0355 -6.20762 56.7971
CA -42.0905 -12.1462 42.0549
CA -45.5046 18.4738 39.8918
CA -15.6078 15.1963 68.8721
CA -11.4349 14.4202 3.00202
CA -56.9058 15.6939 73.8901
CA -31.6431 6.96075 42.0807
CA -45.3673 1.15495 71.7631
CA -15.0358 14.6621 38.8075
CA -15.633 13.3905 18.8188
CA -37.041 7.44356 37.2151
CA -15.3334 27.1503 16.2828
CA -48.6342 -3.38757 68.02
CA -40.778 4.53476 39.0927
CA -36.5515 24.2702 50.426
CA -31.3869 -1.76938 38.8701
CA -44.2308 8.63987 74.3961
CA -35.4645 8.98667 69.217
CA -40.5722 27.4243 49.4389
CA -38.3432 9.50448 81.3062
CA -21.4598 7.52785 47.1745
CA -29.97 13.7729 89.2299
CA -17.8683 -8.26839 43.8397
CA -42.4589 -8.16543 46.0634
CA -30.7489 13.2933 87.6304
CA -43.0966 12.7872 57.992
CA -24.0364 3.54084 40.1853
CA -36.0217 3.95189 83.3268
CA -48.7715 8.00286 53.4163
CA -26.4006 -2.11085 47.8071
CA -47.6418 -4.9414 80.9325
CA -27.9979 1.80578 58.8003
CA -31.5956 -0.614768 34.0789
CA -53.3756 7.61898 43.896
CA -29.3395 -0.331751 50.6154
CA -5.27364 13.1177 4.2844
CA -43.3552 26.1829 77.7387
CA -0.116313 14.8919 16.2263
CA 5.33272 30.0695 17.1771
CA 7.87305 28.0558 19.6093
CA -16.3856 5.0833 45.1061
CA -35.7271 6.26944 47.061
CA -32.8012 18.0581 72.0693
CA 5.25819 7.10786 1.35787
CA -20.3512 -4.95961 46.8736
CA 5.72745 29.5169 19.7391
CA -6.39749 25.1984 22.568
CA -47.2305 10.6309 42.952
CA -32.3946 -1.9128 71.7967
CA -43.6387 27.9945 71.7183
CA -10.286 -13.3395 43.8819
CA -29.3312 -19.4432 69.1853
CA -40.9138 -0.924203 56.3001
CA -23.5576 9.52303 1.33848
CA -22.1131 17.4447 44.6726
CA -12.5676 8.4883 55.8619
CA -32.775 6.57928 87.4333
CA -51.8663 11.9012 44.4341
CA -19.4221 29.623 19.9441
CA -15.7186 14.0204 30.423
CA -45.8259 12.4086 63.7858
CA 0.010155 5.1973 2.41177
CA -3.68647 8.86479 3.3137
CA -25.3677 10.2728 55.7478
CA -56.5229 18.664 70.685
CA -24.6114 22.5066 45.2574
CA -53.3265 19.4691 65.3664
CA -13.597 15.865 49.4612
CA -18.6615 19.1917 56.373
CA -12.4364 1.88364 43.8742
CA -43.7348 11.3768 74.7044
CA -29.7709 5.09864 66.983
CA -40.9073 18.5042 50.031
CA -3.36096 12.2433 3.55514
CA -43.3799 -2.82179 79.4757
CA -31.8859 -17.9955 61.4608
CA -14.5658 -0.287256 60.1789
CA 5.41817 34.8676 15.7203
CA 0.122727 28.7482 19.1937
CA -39.8508 19.5657 79.908
CA -33.5384 4.32895 52.1049
CA -6.0732 -12.449 50.336
CA -22.3907 4.24812 58.5633
CA -13.6101 13.735 59.1232
CA -49.4846 -0.82546 63.188
CA -53.1558 18.5371 43.2535
CA -42.1153 26.1133 73.7347
CA -54.2575 17.198 73.6876
CA -27.6356 5.77787 40.6146
CA -34.5585 -13.5749 47.9647
CA -45.9804 17.098 42.3487
CA -19.852 1.75229 54.1795
CA -29.7567 10.2474 57.3211
CA -37.3671 -8.50472 50.6402
CA -37.3274 13.7786 72.8848
CA -2.65153 15.9463 16.9252
CA -24.7976 16.9626 63.4252
CA -51.9581 17.4403 73.5397
CA -7.0125 8.23963 2.82468
CA -38.4209 -4.73085 41.0421
CA -41.6958 19.6786 36.3819
CA -6.76667 18.121 12.3242
CA -10.5018 -12.8521 51.7149
CA -15.5813 20.3687 19.573
CA -33.4015 -19.9524 60.0381
CA -42.5507 24.8073 70.8636
CA -48.7438 5.59007 52.1172
CA -35.9731 7.70022 75.3123
CA -46.7703 23.7296 73.3073
CA -36.0261 0.214717 80.5218
CA 5.67531 27.276 16.6577
CA -15.7728 19.3048 16.6183
CA -34.364 21.0062 68.9919
CA -32.2732 10.2595 59.1158
CA -26.9849 9.49876 33.6591
CA -29.6182 17.0388 44.5721
CA -44.6976 -0.671909 68.276
CA -14.0152 -11.8873 59.9739
CA -30.756 -0.591651 61.3937
CA -25.87 27.0489 45.677
CA -32.8211 16.9953 47.9652
CA -38.1571 -12.2494 68.3363
CA -11.2482 15.0853 8.44162
CA -46.9989 15.5622 61.9
CA -36.3951 20.3286 44.2451
CA -47.9594 1.24421 72.2921
CA -26.4689 25.1841 51.5893
CA -31.6207 13.1023 62.4252
CA -44.1341 15.5885 74.1318
CA -32.8575 16.7946 42.854
CA -34.0732 24.5574 46.4276
CA -50.7167 14.5712 56.8799
CA -19.4395 -6.56279 57.7732
CA -0.293662 28.1133 17.2903
CA -0.737711 8.15776 4.64375
CA -42.4887 13.509 69.7296
CA -32.3768 12.2353 29.3608
CA -9.34133 16.7647 20.1938
CA -31.621 -10.0001 58.8536
CA -54.2591 13.9438 45.4853
CA -27.3399 19.4846 58.9066
CA -11.5988 -15.4047 53.7052
CA -37.0696 -5.63895 38.7555
CA -36.2776 -8.72071 37.0217
CA -42.7637 2.08072 51.1564
CA -43.3893 19.2895 46.1639
CA -38.7681 -6.15903 88.2766
CA -10.8047 29.1666 16.2652
CA -18.1778 20.7291 21.9925
CA -37.3269 -2.4731 63.9458
CA -19.2238 -8.98566 60.0453
CA -4.19589 13.5052 18.75
CA -42.5726 -9.08725 40.0228
CA -31.0707 3.68568 41.1392
CA -15.9269 -4.61993 40.3058
CA -12.2307 -4.83749 47.8723
CA -37.7341 4.60048 50.0834
CA -43.8387 9.45529 59.3964
CA -34.4935 2.03458 35.7638
CA -1.84909 15.017 -0.0616396
CA -38.9326 -12.0152 62.8824
CA -44.1195 20.6962 48.7252
CA -29.3958 -0.00484017 73.0174
CA -43.6882 19.8246 69.5565
CA -19.1643 3.8733 47.8775
CA -21.1728 3.88011 41.5486
CA -44.9675 -1.3357 85.7136
CA -21.9402 14.1132 34.9387
CA -21.448 -3.99914 48.2585
CA 4.55646 34.7954 18.9949
CA -30.8174 14.8545 73.6077
CA -42.4634 -6.82207 60.4153
CA -25.2543 -3.29194 51.8052
CA -18.9986 16.8321 43.1801
CA -19.3837 -13.653 41.905
CA -20.8792 -11.217 50.5504
CA -20.3928 22.4588 48.6894
CA -44.7028 14.2277 53.4232
CA -42.6199 12.004 72.6114
CA -19.0323 6.59293 64.2509
CA -3.11041 20.6916 15.0869
CA -31.5612 7.82766 68.5094
CA -35.947 3.87881 47.5384
CA -35.7191 3.84598 52.1478
CA -49.3411 21.186 52.2266
CA -33.2027 21.0924 48.0535
CA -12.3631 17.8078 18.6391
CA -30.1433 -16.4924 67.3975
CA -27.1924 21.4847 56.6994
CA -18.125 0.510503 40.4176
CA -32.6224 1.88248 31.1282
CA -51.9609 15.1132 61.8834
CA -45.6526 -0.472204 58.5539
CA -38.5084 21.9307 82.6309
CA -29.1915 -16.9278 63.5829
CA -18.4663 9.5729 8.40736
CA -53.8147 20.3423 52.5179
CA -34.23 -8.04443 57.0365
CA -10.9459 18.6891 49.9919
CA -53.6031 18.1229 45.1903
CA -39.1696 -13.9306 63.0271
CA -18.7597 -3.51188 45.8586
CA -9.68165 14.4946 17.2894
CA -24.346 0.00336458 72.5134
CA -36.6453 16.5934 62.213
CA -46.6258 19.5468 49.7172
CA -40.0649 1.28091 64.6222
CA -38.5727 16.9286 75.758
CA -51.7955 -6.57156 68.2171
CA -17.7488 8.67142 50.4539
CA -11.6119 17.1074 29.718
CA -15.3838 -15.8024 42.5083
CA -22.5893 8.60393 65.8645
CA 0.590264 31.1724 18.469
CA -38.8647 -13.7978 49.9055
CA -44.6122 4.9892 69.0929
CA -29.9677 24.1428 59.7102
CA -40.341 7.0962 49.4937
CA -5.91006 27.8846 14.5062
CA -17.0263 17.2312 33.0565
CA -30.2558 -3.25421 48.7408
CA -9.71535 17.3099 56.3694
CA -21.6485 11.8777 66.3783
CA -27.0167 13.9591 54.1675
CA -35.5777 -6.76133 67.9073
CA -54.6097 15.9808 78.0028
