489

CA -16.2816 11.5026 9.86657
CA -39.5102 -3.38433 53.266
CA -37.8334 -3.95283 68.7389
CA -8.29734 20.6077 21.2884
CA -47.1704 17.3479 38.8894
CA -16.7792 14.614 37.6687
CA -50.2039 10.2909 47.9513
CA -3.77088 25.9673 19.2267
CA -41.949 9.86709 71.119
CA -35.6383 -2.4311 45.4511
CA -44.7222 26.5898 78.1473
CA -2.82661 18.2927 17.0672
CA -32.1465 12.1887 43.7815
CA -21.6102 13.9632 30.7902
CA -13.9459 -8.49815 49.9271
CA -6.29759 16.2601 9.03912
CA -9.56576 -14.1457 54.0667
CA -16.3787 22.5654 15.8764
CA -43.7531 -4.39237 87.0909
CA -18.0697 3.25411 40.5873
CA -19.057 14.0494 46.1315
CA -37.6623 13.3681 73.5101
CA -34.6422 -0.455028 59.4748
CA -21.0195 22.3311 53.6838
CA -9.75644 27.4104 17.2403
CA -27.5841 17.5289 55.4782
CA -47.6922 6.48206 57.6472
CA -47.1115 -7.031 84.0474
CA -26.3895 -2.34414 59.6514
CA -46.41 -0.968078 77.1869
CA -34.319 -15.5767 43.3035
CA 1.32044 25.6261 17.578
CA -13.8239 20.076 20.647
CA -30.4405 3.61563 47.6152
CA -20.0704 13.6839 34.5925
CA -22.6378 0.779864 48.5304
CA -19.8442 18.4591 60.5295
CA -31.9332 -5.75548 46.7935
CA -38.9487 2.82116 75.4877
CA -18.5145 27.6351 19.4571
CA -46.6582 -10.9797 42.0711
CA -14.3681 13.9369 29.2189
CA -39.5168 2.6849 90.783
CA -18.1219 21.2363 16.4519
CA -7.53299 -14.6057 55.1621
CA -21.5856 -0.503836 37.9925
CA -29.7387 3.41579 45.9292
CA -32.6924 -21.2182 49.158
CA -51.2731 13.2739 62.1553
CA -31.4998 19.569 71.0416
CA -35.7904 26.492 50.2221
CA -29.5602 21.5278 74.0167
CA -40.3431 -8.58134 41.1082
CA -31.446 10.9408 72.0733
CA -47.6616 1.70677 62.2058
CA -13.6259 22.8159 14.0643
CA -9.70748 -6.40775 57.4317
CA -28.2227 1.6085 52.1564
CA -13.82 23.4637 24.9235
CA -20.8423 5.29198 40.0798
CA -3.81645 19.8987 16.8398
CA -40.5544 -4.97408 51.0249
CA -20.4332 -8.76189 45.4649
CA -33.5005 6.13409 69.8275
CA -10.9037 11.6194 38.7937
CA -57.2797 17.5448 48.0171
CA -33.8491 5.10891 35.4999
CA -15.1603 18.6631 45.9723
CA -26.2804 -3.57678 49.9484
CA -48.1375 11.7461 52.7507
CA -30.6483 11.2551 58.7014
CA -27.7163 7.28972 34.4389
CA -17.8006 17.223 51.9474
CA -40.3639 -2.90248 88.1767
CA -46.7725 -3.55929 56.6331
CA -38.5277 -10.3029 58.7957
CA -27.1041 7.02872 32.2481
CA -30.7919 17.3769 46.6359
CA -43.2309 5.60573 47.4593
CA -35.8937 -10.7085 62.009
CA -40.2621 -14.3235 55.122
CA -41.3711 9.53012 50.03
CA -46.692 24.904 75.732
CA -38.919 -1.39992 84.4808
CA -35.4671 -3.34901 49.4236
CA -35.8229 -13.2583 50.8867
CA -16.2236 6.95646 38.5818
CA -53.7889 -5.173 69.0092
CA -52.2079 15.2656 68.7222
CA -32.0605 0.496135 53.7557
CA -30.7295 1.89674 35.762
CA -37.1921 20.2084 79.3736
CA -52.4364 14.29 63.593
CA -12.2076 11.8623 0.672463
CA -17.3278 -12.4356 44.0539
CA -32.4341 -5.99616 38.8986
CA -37.8056 -7.96174 66.9919
CA -26.491 19.5717 67.9068
CA -20.3689 9.02543 65.0595
CA -12.5186 -10.2421 57.4093
CA -35.4311 -15.0312 49.4053
CA -0.640408 30.6278 21.2395
CA -5.03691 22.5591 21.1748
CA -24.866 -18.3704 56.7865
CA -39.2483 13.3073 81.3216
CA -52.5684 14.3942 60.3073
CA -23.775 7.93398 34.8718
CA -11.05 -13.7073 57.8364
CA -40.34 2.19949 45.3922
CA -33.8365 -16.3497 45.9031
CA -36.5746 2.87127 87.6783
CA -30.7831 7.10864 66.6231
CA -6.95031 16.3549 17.5685
CA -20.2471 19.375 43.0539
CA -45.8813 -5.52505 83.8484
CA -18.5393 20.0645 18.4646
CA -27.8894 -3.43645 41.2336
CA -44.5607 0.837467 56.9961
CA -48.739 14.0439 65.8
CA -31.7833 13.3977 30.9447
CA -29.3817 4.84832 34.2025
CA -16.3763 -6.33629 41.1446
CA -19.0879 14.6532 64.4322
CA 0.700962 22.8106 19.1019
CA -21.1012 -0.669065 49.0371
CA -14.8306 -12.967 52.4385
CA -13.6136 17.9154 54.6017
CA -31.0593 -14.9985 58.2957
CA -21.9566 10.1184 4.39105
CA -41.5491 10.6247 78.4293
CA -25.8958 -15.1486 61.382
CA -34.649 -0.43901 81.9692
CA -19.8784 8.15391 54.0519
CA -33.2999 10.0701 88.094
CA -12.7207 -4.66658 53.8399
CA -26.4233 9.54733 57.414
CA -34.3724 -10.6005 43.3626
CA -48.6432 9.89653 47.0625
CA -45.7244 -1.41416 47.0531
CA -42.3736 27.1276 46.3594
CA -49.1393 1.17735 65.9697
CA -37.4656 18.4695 69.5644
CA -28.477 0.525144 58.9999
CA -53.5414 19.8221 49.8387
CA -41.85 1.52532 56.3862
CA -33.2411 21.711 56.6253
CA -32.7081 19.9788 57.3892
CA -35.1919 -16.2723 53.1665
CA -45.2358 23.1391 36.8122
CA -13.249 16.1302 9.09313
CA -46.2279 1.06671 90.4085
CA -19.0983 15.5731 54.2859
CA -45.3603 10.0173 44.2339
CA -32.1908 5.55551 36.928
CA -50.5531 20.0791 71.3174
CA -45.1784 3.19153 34.1226
CA 11.0478 1.92314 -1.32334
CA -47.5093 12.1381 62.7563
CA -33.4485 7.70492 63.2812
CA -50.4542 -6.59474 70.8772
CA -19.426 3.51464 44.9662
CA -43.5967 -2.16852 46.4639
CA -2.28866 31.9794 17.4225
CA -54.6663 15.7414 62.6735
CA -52.1691 19.8694 47.9541
CA -32.7761 8.24354 72.2468
CA -35.8235 7.49826 54.0809
CA -22.6495 20.0174 57.3668
CA -7.92077 16.3678 57.2504
CA -21.8164 8.76026 56.9838
CA -49.1949 26.6086 75.1682
CA 9.83154 6.2472 2.08776
CA -33.5229 16.2001 72.6745
CA -42.8 15.6557 49.8333
CA -21.032 7.2922 55.6888
CA -47.4343 -3.79923 80.0107
CA -17.2678 -2.06164 62.4729
CA -20.6746 -2.86397 59.6097
CA -45.8485 0.68305 73.6159
CA -42.8299 21.2859 77.1141
CA -32.1487 6.94783 38.8511
CA -33.8483 -25.3993 51.7888
CA 4.67258 32.5933 21.9301
CA -41.5954 21.8215 54.3496
CA -42.0117 18.9333 71.0387
CA -18.6323 -11.5087 46.7904
CA -50.5247 -1.54421 59.1353
CA -41.0556 -6.14601 55.4037
CA -39.234 -9.09653 87.4391
CA -7.55599 11.8148 7.22024
CA -35.4279 0.492466 87.6591
CA -18.5953 2.22447 57.0464
CA -16.3421 10.9479 55.0858
CA -25.5018 18.3437 60.2719
CA -19.2152 20.6284 12.1182
CA -39.6774 -6.2459 52.2203
CA -37.3686 -5.39001 48.3686
CA -35.061 -16.216 56.8249
CA -41.854 20.7145 58.6091
CA -21.5207 9.22881 43.5937
CA -13.7782 14.1945 41.269
CA -29.1185 14.025 47.7773
CA -31.1784 9.99707 44.8166
CA -41.7288 -9.44149 56.2832
CA -48.919 15.8323 52.1634
CA -37.2914 -0.0179808 41.7558
CA -32.3214 -17.4355 66.9138
CA -31.3276 0.854513 56.5324
CA -37.5625 27.9529 46.8282
CA -33.6994 1.02306 84.9407
CA -42.6316 -1.90063 73.98
CA -38.342 24.7543 80.9192
CA -20.5997 5.76608 57.9155
CA -48.427 14.8935 37.2093
CA -48.6947 20.2951 40.5954
CA -11.9351 19.0184 27.7444
CA -38.0079 -13.0831 42.5099
CA -28.3402 26.477 54.6445
CA -31.4521 2.18734 88.102
CA -39.0912 -4.10118 45.794
CA -39.3666 4.56149 51.6237
CA -38.1125 10.6021 86.2003
CA -44.6871 -7.15884 84.437
CA -54.6172 13.0084 72.5908
CA -40.1812 15.3686 70.7174
CA -20.2285 27.2905 51.9362
CA -50.0337 17.5516 48.169
CA -50.2917 23.7786 68.4521
CA -19.5219 8.37709 63.594
CA -47.5822 12.7621 47.8371
CA -51.2592 17.3945 38.1658
CA -25.9605 -0.449402 38.1694
CA -34.8951 19.8863 58.8374
CA -44.6793 6.40076 59.4008
CA -45.8148 -2.81796 82.3527
CA -12.3377 14.0487 47.0139
CA -19.0358 23.2167 50.2705
CA -22.8268 -2.26515 57.0432
CA 2.93931 25.4644 14.6128
CA -44.4262 -8.93565 42.5071
CA 3.17405 30.6028 16.5191
CA -16.5422 6.68694 53.9277
CA -16.5101 -3.19851 51.2954
CA -17.1375 -12.297 55.7587
CA -42.4643 21.9409 56.1008
CA -16.706 2.0709 43.8418
CA -46.9772 7.28973 38.7713
CA -17.6765 2.65617 49.0372
CA -29.4305 25.2931 59.0985
CA -35.0224 -3.96461 72.0229
CA -29.9115 5.43567 46.3701
CA -42.9141 0.580024 47.4451
CA -23.6478 21.86 52.5348
CA -39.7136 29.3251 81.3309
CA -13.9081 10.1767 58.1093
CA -41.2859 22.6524 76.4879
CA -27.1487 8.55028 37.6074
CA -27.2479 5.18783 65.2129
CA -21.3434 -0.417859 41.8927
CA -18.5881 15.6859 38.04
CA -20.2774 22.6679 16.7435
CA -28.2526 19.9797 50.1386
CA -45.9222 20.0421 43.946
CA -43.8464 21.6445 75.0411
CA -42.0905 -12.1462 42.0549
CA -45.5046 18.4738 39.8918
CA -29.5948 8.57115 47.4509
CA -11.4349 14.4202 3.00202
CA -34.4473 8.65565 52.3229
CA -37.9604 1.24491 90.3522
CA -45.3673 1.15495 71.7631
CA -15.0358 14.6621 38.8075
CA -15.633 13.3905 18.8188
CA -25.3453 -17.5084 54.3902
CA -15.3334 27.1503 16.2828
CA -48.6342 -3.38757 68.02
CA -40.778 4.53476 39.0927
CA -44.1426 12.4348 67.7871
CA -25.1962 13.5114 64.9794
CA -26.2163 17.1478 64.6938
CA -4.24708 31.1653 18.4909
CA -23.1992 15.5505 39.4705
CA -31.3113 5.35016 54.25
CA -37.2771 7.43739 67.1542
CA -12.0242 -6.27415 52.5443
CA -35.5407 14.0605 39.6991
CA -26.6462 14.1381 61.8492
CA -25.1262 -2.65738 51.6163
CA -28.3752 -4.63113 37.5619
CA -39.7943 21.5342 46.7969
CA -31.755 -13.162 60.7473
CA -33.0525 -17.7058 46.9836
CA -26.4006 -2.11085 47.8071
CA -40.6511 -15.2037 61.0725
CA -46.1858 25.1011 78.7943
CA -47.4113 3.32511 55.5848
CA -13.4018 5.8508 36.1007
CA -17.0725 -0.199364 44.6049
CA -5.27364 13.1177 4.2844
CA -54.4997 22.1234 47.446
CA -0.116313 14.8919 16.2263
CA 5.33272 30.0695 17.1771
CA 7.87305 28.0558 19.6093
CA -47.0695 3.59467 61.458
CA -35.7271 6.26944 47.061
CA -32.8012 18.0581 72.0693
CA 5.25819 7.10786 1.35787
CA -53.0731 12.4669 63.5263
CA 5.72745 29.5169 19.7391
CA -28.1735 -6.27317 65.8216
CA -47.2305 10.6309 42.952
CA -32.3946 -1.9128 71.7967
CA -18.4178 -10.4854 42.6892
CA -22.3951 27.5169 53.1661
CA -15.0199 21.0504 12.9286
CA -40.9138 -0.924203 56.3001
CA -23.5576 9.52303 1.33848
CA -16.7703 -4.89879 66.0428
CA -27.5267 1.50051 41.9673
CA -35.6641 5.51722 64.0254
CA -22.3811 2.33215 42.9285
CA -35.2866 0.22162 80.1738
CA -33.9345 3.88933 82.1468
CA -34.1515 7.32979 37.7801
CA 0.010155 5.1973 2.41177
CA -3.68647 8.86479 3.3137
CA -16.1604 11.7494 37.679
CA -28.3837 -2.54824 38.4687
CA -22.0134 7.76733 33.2875
CA -53.3265 19.4691 65.3664
CA -13.597 15.865 49.4612
CA -18.6615 19.1917 56.373
CA -43.8425 -11.571 42.8869
CA -43.7348 11.3768 74.7044
CA -40.467 11.7007 71.506
CA -40.9073 18.5042 50.031
CA -3.36096 12.2433 3.55514
CA -43.3799 -2.82179 79.4757
CA -29.635 20.5942 59.0959
CA -30.852 19.671 60.1978
CA 5.41817 34.8676 15.7203
CA -36.8982 -2.48333 76.2454
CA -39.8508 19.5657 79.908
CA -33.5384 4.32895 52.1049
CA -40.2203 -5.95272 63.1923
CA -21.3453 21.0559 55.9995
CA -13.6101 13.735 59.1232
CA -35.3035 21.688 52.1221
CA -42.2003 -14.2007 41.8285
CA -42.1153 26.1133 73.7347
CA -54.2575 17.198 73.6876
CA -38.5001 11.6579 45.5323
CA -34.5585 -13.5749 47.9647
CA -40.9859 4.54156 34.7903
CA -19.852 1.75229 54.1795
CA -15.0065 -4.15217 54.5054
CA -20.4235 -6.55414 45.9586
CA -52.0661 20.4006 54.6521
CA -2.65153 15.9463 16.9252
CA -24.7976 16.9626 63.4252
CA -40.3462 16.6401 75.8481
CA -7.0125 8.23963 2.82468
CA -30.0378 -9.43758 59.5226
CA -41.6958 19.6786 36.3819
CA -6.76667 18.121 12.3242
CA -23.5512 -13.28 42.2942
CA 6.33367 34.4603 18.9285
CA -11.9162 -0.771892 52.128
CA -39.1594 23.6643 50.2397
CA -48.7438 5.59007 52.1172
CA -40.4986 15.2928 46.4279
CA -36.6423 24.6968 79.3423
CA -33.8936 22.9263 51.6998
CA 5.67531 27.276 16.6577
CA -15.7728 19.3048 16.6183
CA -34.364 21.0062 68.9919
CA -30.0514 12.0524 41.5938
CA -46.2303 8.01857 72.0534
CA -29.6182 17.0388 44.5721
CA -44.6976 -0.671909 68.276
CA -28.8148 10.8877 64.1252
CA -38.6929 2.39229 66.0598
CA -38.9087 6.64809 48.2433
CA -25.8166 7.85269 55.9333
CA -55.6941 17.1924 58.7423
CA -11.2482 15.0853 8.44162
CA -26.1285 21.0236 46.2703
CA -46.3126 10.5071 58.7983
CA -37.6628 -16.6775 48.2464
CA -34.2653 10.1894 43.2882
CA -31.6207 13.1023 62.4252
CA -27.5055 2.53445 49.3309
CA -35.8294 20.8216 63.073
CA -36.8715 0.258151 62.8723
CA -50.7167 14.5712 56.8799
CA -40.0707 1.53902 74.5568
CA -1.22695 18.4784 18.0838
CA -0.737711 8.15776 4.64375
CA -41.9427 -1.20008 87.929
CA -41.1974 -9.30957 43.7601
CA -16.076 -7.08466 45.0876
CA -31.621 -10.0001 58.8536
CA -7.08481 6.77789 4.9275
CA -29.7112 8.31792 56.0509
CA -46.553 11.0605 53.9727
CA -30.8019 -15.6391 64.9872
CA -36.2776 -8.72071 37.0217
CA -40.2937 -1.07083 58.071
CA -43.3893 19.2895 46.1639
CA -38.7681 -6.15903 88.2766
CA -10.8047 29.1666 16.2652
CA -18.1778 20.7291 21.9925
CA -37.3269 -2.4731 63.9458
CA -19.2238 -8.98566 60.0453
CA -4.19589 13.5052 18.75
CA -29.5427 9.12381 68.403
CA -39.2354 -1.0628 60.1866
CA -36.9044 -7.49196 70.7505
CA -45.9645 20.021 74.0306
CA -39.4361 -4.1263 66.6635
CA -30.9282 -5.60886 63.1326
CA -34.4935 2.03458 35.7638
CA -1.84909 15.017 -0.0616396
CA -38.7966 2.81649 59.9723
CA -28.1943 10.7956 30.6299
CA -27.9702 -11.7683 56.8034
CA -43.6882 19.8246 69.5565
CA -40.7534 2.01283 70.1682
CA -21.1728 3.88011 41.5486
CA -44.9675 -1.3357 85.7136
CA -37.0432 21.6702 49.3584
CA -21.448 -3.99914 48.2585
CA 4.55646 34.7954 18.9949
CA -44.061 8.35387 76.3036
CA -53.1672 9.14626 60.7583
CA -22.8338 -1.61636 59.2708
CA -18.9986 16.8321 43.1801
CA -43.985 -0.18662 77.9608
CA -31.6502 12.8095 70.4325
CA -55.6893 11.3868 72.3259
CA -32.911 10.0128 56.1407
CA -42.6199 12.004 72.6114
CA -19.0323 6.59293 64.2509
CA -3.11041 20.6916 15.0869
CA -31.5612 7.82766 68.5094
CA -35.947 3.87881 47.5384
CA -36.7259 5.37983 40.228
CA -49.3411 21.186 52.2266
CA -34.1522 -2.15461 39.4527
CA -12.3631 17.8078 18.6391
CA -32.2862 16.7981 41.0917
CA -30.68 16.4743 72.2481
CA -10.8032 17.3628 20.0942
CA -40.1391 -0.568052 79.6515
CA -42.0351 16.5489 45.7612
CA -45.6526 -0.472204 58.5539
CA -14.3409 9.55687 -3.32
CA -29.1915 -16.9278 63.5829
CA -18.4663 9.5729 8.40736
CA -40.2878 -13.9927 59.1956
CA -39.5107 10.2824 50.1197
CA -10.9459 18.6891 49.9919
CA -28.8193 -6.33929 35.4574
CA -29.4212 0.487936 61.2475
CA -42.1509 19.6641 39.5467
CA -9.68165 14.4946 17.2894
CA -14.0029 20.8527 51.6617
CA -36.6453 16.5934 62.213
CA -27.3111 15.7667 50.583
CA -43.9191 2.7102 44.5199
CA -17.4663 -14.4888 58.2413
CA -51.7955 -6.57156 68.2171
CA -18.0406 8.30177 58.4702
CA -11.6119 17.1074 29.718
CA -37.6812 3.39636 56.0921
CA -22.5893 8.60393 65.8645
CA 0.590264 31.1724 18.469
CA -17.8969 -12.5747 41.7941
CA -34.5975 25.892 51.5582
CA -34.9561 5.6146 80.4768
CA -16.7662 18.2337 57.7348
CA -38.6043 7.98744 51.927
CA -17.0263 17.2312 33.0565
CA -24.1932 -15.8248 38.5194
CA -9.71535 17.3099 56.3694
CA -21.6485 11.8777 66.3783
CA -27.0167 13.9591 54.1675
CA -48.4003 7.43686 54.4375
CA -54.6097 15.9808 78.0028
