489

CA -16.2816 11.5026 9.86657
CA -49.8866 19.1771 76.0694
CA -12.2733 21.0803 23.3764
CA -16.1092 7.52659 52.3218
CA -17.9815 -0.432553 39.0132
CA -35.0309 0.365127 54.5964
CA -50.2039 10.2909 47.9513
CA -3.77088 25.9673 19.2267
CA -43.6688 5.63938 41.79
CA -36.1938 -11.5724 51.6099
CA -34.7442 3.57606 77.9198
CA -2.82661 18.2927 17.0672
CA -32.1465 12.1887 43.7815
CA -37.0189 -0.689229 38.7741
CA -55.2066 22.2201 75.8084
CA -6.29759 16.2601 9.03912
CA -29.7861 12.2577 76.546
CA -16.3787 22.5654 15.8764
CA -34.5123 0.273615 35.4831
CA -40.8787 18.1565 43.3827
CA -11.6843 15.4611 24.6176
CA -51.67 3.64418 54.5469
CA -27.1313 1.09523 39.6334
CA -40.4631 8.248 44.9157
CA -9.75644 27.4104 17.2403
CA -27.5841 17.5289 55.4782
CA -49.8079 13.406 39.925
CA -47.1115 -7.031 84.0474
CA -26.3895 -2.34414 59.6514
CA -52.1513 11.7637 67.3523
CA -41.6572 17.4351 39.5442
CA 1.32044 25.6261 17.578
CA -32.8135 -16.7232 54.3811
CA -30.4405 3.61563 47.6152
CA -40.3915 15.6853 78.5304
CA -33.686 23.5003 57.7926
CA -30.5844 0.880951 53.3989
CA -31.9332 -5.75548 46.7935
CA -18.6656 9.94345 37.09
CA -18.5145 27.6351 19.4571
CA -36.7493 16.6785 68.2616
CA -14.3681 13.9369 29.2189
CA -26.3235 0.80696 44.8889
CA -18.1219 21.2363 16.4519
CA -43.1605 1.64964 90.2957
CA -15.5507 17.4498 47.5408
CA -45.2389 12.8527 42.6019
CA -22.4347 -15.0419 42.3892
CA -40.6146 -6.99141 58.6581
CA -29.2618 12.3177 37.7062
CA -20.5555 -15.4418 55.964
CA -43.4436 26.3922 73.1652
CA -32.5447 3.42366 72.9068
CA -49.7411 20.7205 73.3166
CA -32.7501 12.6752 71.3514
CA -26.1612 10.3561 64.86
CA -39.5049 -10.7091 56.1804
CA -28.2227 1.6085 52.1564
CA -38.4516 0.365619 58.924
CA -39.8534 5.62277 78.5392
CA -3.81645 19.8987 16.8398
CA -30.1884 24.3822 48.3982
CA -37.82 -11.4735 64.3517
CA -29.9294 8.31184 64.0859
CA -43.8507 8.3526 65.7046
CA -54.6156 -1.46839 65.9808
CA -37.5144 -15.4894 46.435
CA -15.1603 18.6631 45.9723
CA -26.2804 -3.57678 49.9484
CA -37.5125 -14.0169 61.0431
CA -30.6483 11.2551 58.7014
CA -27.7163 7.28972 34.4389
CA -51.1908 7.97963 52.1103
CA -38.8364 20.2457 43.7515
CA -30.392 -9.16973 49.6585
CA -33.0861 -7.82401 54.9767
CA -38.0603 9.65477 33.1851
CA -21.8981 16.3433 55.3438
CA -31.2165 16.1598 73.0631
CA -26.8771 8.0914 58.0027
CA -13.6822 27.3084 21.025
CA -15.7431 5.90014 42.1136
CA -46.692 24.904 75.732
CA -27.4593 -8.67567 50.1876
CA -22.741 12.4626 47.0162
CA -52.103 10.3507 61.5623
CA -42.7348 14.7801 63.1535
CA -53.7889 -5.173 69.0092
CA -49.4236 11.9713 42.2585
CA -42.1262 7.92396 34.0331
CA -24.4571 -8.18639 49.0953
CA -45.4198 -7.10306 68.6045
CA -43.4511 3.14168 28.6303
CA -12.2076 11.8623 0.672463
CA -18.0846 9.58164 29.3408
CA -31.8589 -1.43773 82.1597
CA -48.0569 10.2226 67.9893
CA -37.0605 -8.76503 47.3361
CA -35.1601 19.549 65.2199
CA -37.5822 6.9136 35.5788
CA -34.3315 -3.46419 28.3879
CA -50.7835 8.25653 32.301
CA -31.8128 -9.60434 65.8803
CA -37.8037 6.25557 54.4585
CA -44.2475 2.99482 31.7855
CA -14.6144 28.7567 22.8852
CA -23.775 7.93398 34.8718
CA -41.6298 7.97378 30.3291
CA -40.34 2.19949 45.3922
CA -21.8626 -8.30004 37.1331
CA -28.6668 -8.53667 34.2283
CA -34.7335 24.8896 54.4098
CA -6.95031 16.3549 17.5685
CA -25.3106 27.2124 45.5072
CA -42.5941 26.8224 78.1465
CA -18.5393 20.0645 18.4646
CA -11.653 6.59945 37.7597
CA -38.3227 7.53213 30.4273
CA -37.4461 -7.07546 42.6303
CA -20.5937 11.5968 56.2731
CA -18.3751 -4.77642 56.6184
CA -45.2716 2.75395 46.1917
CA -38.9073 -0.507893 39.8267
CA 0.700962 22.8106 19.1019
CA -21.1012 -0.669065 49.0371
CA -40.8328 2.56967 91.5867
CA -43.4383 4.42146 43.7
CA -49.549 -8.64322 67.7948
CA -21.9566 10.1184 4.39105
CA -41.5491 10.6247 78.4293
CA -31.8652 21.3166 61.2882
CA -38.5344 15.1689 66.1173
CA -24.2626 4.57087 54.895
CA -44.4226 16.9572 40.2625
CA -14.5232 -10.9282 61.196
CA -26.288 -8.80073 51.6182
CA -18.7271 2.26183 48.2995
CA -26.8676 -3.42987 33.7828
CA -41.8715 4.87773 34.6458
CA -28.561 25.5286 50.5865
CA -15.5293 26.5772 56.6177
CA -34.3006 20.261 47.5042
CA -41.4248 -6.6515 55.4197
CA -42.3261 3.76539 30.5386
CA -14.1522 -6.72286 50.8324
CA -28.1268 27.6742 48.3757
CA -33.3872 -4.06565 57.2998
CA -42.6154 -13.7262 45.117
CA -53.6852 15.5319 59.266
CA -13.249 16.1302 9.09313
CA -37.8977 2.01366 79.9432
CA -33.4944 -2.68031 47.0401
CA -25.1942 11.2418 37.9897
CA -39.6893 -2.16424 76.7854
CA -18.182 -13.2682 61.578
CA -45.1784 3.19153 34.1226
CA -22.6017 15.4947 61.3748
CA -42.8953 8.18561 67.3735
CA -42.0523 7.97243 74.7233
CA -17.0014 11.7115 33.7729
CA -35.1255 1.5048 75.3539
CA -13.6444 17.8899 46.89
CA -2.28866 31.9794 17.4225
CA -40.1966 2.36502 86.2131
CA -39.2511 22.2873 46.3303
CA -41.8312 -2.63087 61.4133
CA -35.3966 2.42994 37.0731
CA -17.0411 18.849 62.2112
CA -52.9209 6.84472 58.3398
CA -51.617 16.9092 61.8723
CA -40.2613 22.4227 48.6546
CA 9.83154 6.2472 2.08776
CA -40.5587 -9.07155 37.5718
CA -45.9623 9.37671 55.5249
CA -43.0193 -14.6542 61.8262
CA -47.4343 -3.79923 80.0107
CA -39.4768 -1.77329 86.4587
CA -20.6746 -2.86397 59.6097
CA -15.1158 23.2738 57.9549
CA -42.8299 21.2859 77.1141
CA -25.4997 0.827798 48.4667
CA -33.8221 -9.22734 38.552
CA -34.8293 -12.9771 51.5737
CA -27.1601 1.81452 35.1565
CA -31.2885 -7.74294 37.3549
CA -49.42 3.7001 60.1277
CA -53.299 16.051 53.8584
CA -20.8551 -11.6895 51.3663
CA -40.8909 14.251 46.0758
CA -7.55599 11.8148 7.22024
CA -52.4113 -5.49072 61.7538
CA -18.5953 2.22447 57.0464
CA -37.6265 18.2778 47.2915
CA -23.8154 5.37055 63.5131
CA -39.2097 25.6754 79.6181
CA -39.6774 -6.2459 52.2203
CA -33.9011 9.75635 39.9052
CA -16.3592 23.0703 21.2429
CA -23.9538 -11.2008 38.6264
CA -47.932 5.15909 61.3558
CA -27.5451 5.06071 41.5145
CA -29.6669 14.4748 52.4612
CA -18.1522 -11.0767 40.7298
CA -21.8693 -1.59637 46.5183
CA -45.1501 13.1422 58.1045
CA -37.2914 -0.0179808 41.7558
CA -20.8882 -12.2476 46.8839
CA -31.3276 0.854513 56.5324
CA -37.432 -2.65855 70.4183
CA -39.2315 26.8561 60.6685
CA -34.0165 10.6076 77.4921
CA -40.9147 12.4234 82.1917
CA -42.1445 -8.4343 62.9808
CA -17.0762 -5.45336 55.5337
CA -37.3009 22.6952 59.3498
CA -11.9351 19.0184 27.7444
CA -38.0079 -13.0831 42.5099
CA -22.333 7.07928 54.6684
CA -26.1839 5.0898 38.3027
CA -39.0912 -4.10118 45.794
CA -34.6779 17.5252 56.8879
CA -40.8328 11.0289 64.3493
CA -27.8542 -8.01281 59.4123
CA -39.9423 -6.8257 68.8658
CA -23.6433 -1.60941 46.0031
CA -37.3967 11.3381 66.9754
CA -40.2335 -9.93709 57.916
CA -50.2966 14.9632 77.2824
CA -47.3815 16.5015 59.9644
CA -36.21 15.3011 69.7615
CA -51.2592 17.3945 38.1658
CA -32.51 -9.59564 49.8865
CA -19.5227 9.77678 61.2728
CA -44.6793 6.40076 59.4008
CA -52.3563 12.6401 63.6632
CA -16.2339 16.2217 53.5629
CA -19.0358 23.2167 50.2705
CA -23.2618 -9.2736 42.7531
CA -34.2549 -17.9251 49.3333
CA -7.56357 15.9704 54.8581
CA 3.17405 30.6028 16.5191
CA -16.5422 6.68694 53.9277
CA -51.869 15.6052 38.5907
CA -29.4983 32.0861 55.3811
CA -19.9495 -7.46793 61.0108
CA -40.9134 20.4327 74.9554
CA -34.3369 -10.9441 49.688
CA -19.8204 10.5379 51.5707
CA -19.5246 10.625 29.0021
CA -35.0224 -3.96461 72.0229
CA -39.9013 -12.6854 60.0884
CA -38.7109 5.13021 57.3504
CA -44.4426 25.5801 78.0318
CA -26.3177 -2.76847 36.2361
CA -31.2984 12.3463 46.4907
CA -35.3709 4.31647 54.5962
CA -27.1487 8.55028 37.6074
CA -27.2479 5.18783 65.2129
CA -19.3147 12.1975 33.8221
CA -34.1508 -13.1797 67.5404
CA -20.2774 22.6679 16.7435
CA -28.2526 19.9797 50.1386
CA -34.846 18.2205 72.7048
CA -36.9821 -0.77472 70.6971
CA -42.0905 -12.1462 42.0549
CA -34.6958 13.7044 55.7102
CA -29.5948 8.57115 47.4509
CA -11.4349 14.4202 3.00202
CA -34.4473 8.65565 52.3229
CA -37.9604 1.24491 90.3522
CA -23.2184 0.631868 63.6573
CA -51.2071 12.4897 71.9751
CA -15.633 13.3905 18.8188
CA -20.1899 13.5827 36.7543
CA -15.3334 27.1503 16.2828
CA -36.6052 22.7643 46.135
CA -24.1902 14.0659 52.8378
CA -44.1426 12.4348 67.7871
CA -12.6898 24.9508 17.9057
CA -37.9655 -19.2293 46.6776
CA -0.243394 28.8599 18.1916
CA -41.3715 -4.90238 48.1775
CA -36.8169 -7.17475 68.3904
CA -37.2771 7.43739 67.1542
CA -29.802 -8.01296 38.66
CA -45.2925 0.0746344 36.1897
CA -21.8442 -1.34989 39.7771
CA -12.5966 22.0289 47.3088
CA -34.8314 5.22971 60.0238
CA -41.418 -6.96801 47.5787
CA -34.3723 14.8602 66.2083
CA -40.9497 4.88659 88.6997
CA -37.6542 16.1915 48.0096
CA -19.4977 -15.2002 57.6147
CA -17.8059 20.7171 55.9064
CA -44.3764 14.0775 85.1942
CA -49.1496 12.2515 51.1828
CA -17.0725 -0.199364 44.6049
CA -5.27364 13.1177 4.2844
CA -32.913 9.52808 82.2575
CA -0.116313 14.8919 16.2263
CA -26.0664 22.7422 47.0692
CA -29.7934 10.873 43.3639
CA -23.0489 -4.25682 53.6643
CA -35.7271 6.26944 47.061
CA -35.3648 21.8069 52.8172
CA 5.25819 7.10786 1.35787
CA -17.8092 15.1651 43.1217
CA 5.72745 29.5169 19.7391
CA -24.5349 -17.1175 34.7288
CA -36.2775 -2.13382 41.3234
CA -28.3747 27.5407 58.0413
CA -18.4178 -10.4854 42.6892
CA -22.6098 5.29458 57.3948
CA -15.0199 21.0504 12.9286
CA -40.9138 -0.924203 56.3001
CA -23.5576 9.52303 1.33848
CA -46.0692 7.02535 33.5079
CA -27.5267 1.50051 41.9673
CA -25.205 15.8694 63.3173
CA -22.3811 2.33215 42.9285
CA -35.2866 0.22162 80.1738
CA -10.2526 -5.43724 54.3531
CA -50.076 18.6429 55.3595
CA 0.010155 5.1973 2.41177
CA -3.68647 8.86479 3.3137
CA -31.7379 -12.609 46.6646
CA -16.3681 3.83498 58.0873
CA -28.3065 11.7029 50.594
CA -39.8168 6.60757 53.036
CA -44.2208 24.1295 79.2999
CA -18.6615 19.1917 56.373
CA -46.0844 -1.39904 67.4401
CA -25.0012 11.066 -2.56113
CA -50.2008 5.69683 50.8657
CA -40.9073 18.5042 50.031
CA -3.36096 12.2433 3.55514
CA -49.0428 23.1249 70.8211
CA -25.8756 6.48997 53.5834
CA -26.3981 -5.79396 39.5134
CA 5.41817 34.8676 15.7203
CA -36.8982 -2.48333 76.2454
CA -39.8508 19.5657 79.908
CA -33.5384 4.32895 52.1049
CA -41.6575 4.14109 47.567
CA 9.21432 37.1539 21.2019
CA -36.3985 -9.89325 63.5721
CA -20.9158 -0.145306 35.8545
CA -29.3426 26.04 48.1285
CA -20.7079 10.1678 45.8712
CA -33.8395 27.7493 55.5455
CA -40.1272 -12.958 38.0603
CA -34.8219 4.39546 70.8415
CA -40.7195 -16.8777 61.8585
CA -27.1779 13.2608 61.6534
CA -40.7958 28.4662 70.9639
CA -48.3819 5.97996 51.1448
CA -24.7525 17.8358 52.2316
CA -2.65153 15.9463 16.9252
CA -22.5801 -5.7596 57.1694
CA -42.1565 -0.969046 92.2746
CA -4.60892 8.13263 5.18204
CA -32.4713 10.4784 38.2852
CA -45.7041 3.35321 64.4997
CA -6.76667 18.121 12.3242
CA -35.8487 -4.06919 43.5087
CA 6.33367 34.4603 18.9285
CA -49.8582 17.6335 49.8944
CA 3.85851 4.32163 1.78938
CA -16.3335 28.7497 23.8818
CA -46.8317 4.92311 57.7862
CA -53.711 17.7543 57.9327
CA -38.5605 17.2537 78.4322
CA 5.67531 27.276 16.6577
CA -15.7728 19.3048 16.6183
CA -26.8742 1.58366 54.9126
CA -30.0514 12.0524 41.5938
CA -35.5376 2.51747 46.5721
CA -36.2313 -9.60496 40.1546
CA -51.8307 16.9496 70.7689
CA -19.6547 -10.1857 49.3702
CA -53.7356 20.0843 62.6799
CA -32.4574 12.82 50.3275
CA -40.3185 -3.56447 68.1503
CA -53.4226 12.117 62.2991
CA -11.2482 15.0853 8.44162
CA -43.8222 3.62972 86.4029
CA -37.1705 17.0642 70.6264
CA -37.6628 -16.6775 48.2464
CA -34.2653 10.1894 43.2882
CA -25.6699 -1.0771 66.6643
CA -47.1069 15.1355 71.6106
CA -25.628 26.8204 50.0864
CA -44.3156 -1.83319 75.372
CA -26.9635 13.0735 67.7899
CA -52.3982 24.0985 73.2216
CA -1.22695 18.4784 18.0838
CA -0.737711 8.15776 4.64375
CA -13.8376 -2.05373 46.4396
CA -41.1974 -9.30957 43.7601
CA -21.2688 -6.17046 54.7506
CA -31.621 -10.0001 58.8536
CA -34.8452 -6.66649 30.8481
CA -39.4743 -4.42669 71.5847
CA -9.96995 16.0565 21.9859
CA -46.1465 9.20734 42.5984
CA -41.1465 5.25399 49.4099
CA -41.7506 -0.523024 85.0293
CA -23.6712 -14.6569 36.1632
CA -53.7944 19.8629 39.5684
CA -10.8047 29.1666 16.2652
CA -15.1723 -16.276 61.5635
CA -41.1296 25.5208 73.2479
CA -19.2238 -8.98566 60.0453
CA -41.7783 -10.4494 38.5626
CA -12.3853 14.5285 55.837
CA -40.6309 6.96061 57.0146
CA -0.990225 21.6282 17.223
CA -45.9645 20.021 74.0306
CA -30.9065 30.545 53.2511
CA -20.4974 6.96021 59.9774
CA -41.7234 5.64417 78.9117
CA -1.84909 15.017 -0.0616396
CA -38.7966 2.81649 59.9723
CA -11.7715 7.04106 41.1695
CA -13.7844 12.1606 37.3555
CA -49.0048 -10.4042 83.0429
CA -20.0481 13.9395 57.4027
CA -49.4964 -7.87335 63.4155
CA -44.9675 -1.3357 85.7136
CA -48.4296 3.75923 51.1606
CA -48.6679 15.986 67.9923
CA 4.55646 34.7954 18.9949
CA -20.0327 7.96352 38.7941
CA -42.8191 16.0369 80.1049
CA -33.8864 11.5789 59.7203
CA -18.9986 16.8321 43.1801
CA -39.5264 2.57684 83.6006
CA -20.6966 5.54633 67.5637
CA -17.4709 23.9449 53.8877
CA -37.5045 -12.2199 40.7241
CA -28.6565 11.7855 64.0558
CA -37.8542 27.7744 52.5207
CA 0.233746 18.84 15.9902
CA -31.5612 7.82766 68.5094
CA -28.7683 24.0974 57.4725
CA -47.4286 11.0077 60.3076
CA -38.4953 15.6134 55.198
CA -39.6396 5.81082 73.6069
CA -12.3631 17.8078 18.6391
CA -43.5323 8.55098 41.3553
CA -46.0472 7.24983 77.2268
CA -44.8306 -2.46687 83.436
CA -7.2481 14.7418 51.4822
CA -18.7008 5.2755 38.4364
CA -34.7594 20.2959 57.9684
CA -14.3409 9.55687 -3.32
CA -27.4915 11.4014 76.0304
CA -18.4663 9.5729 8.40736
CA -48.7999 9.39281 42.6206
CA -39.5107 10.2824 50.1197
CA -25.2211 -13.294 36.2004
CA -28.8193 -6.33929 35.4574
CA -39.0556 -11.9027 66.2379
CA -42.1509 19.6641 39.5467
CA -9.68165 14.4946 17.2894
CA -14.0029 20.8527 51.6617
CA -34.2912 -14.3809 64.1076
CA -46.3587 2.16959 54.3815
CA -52.4507 18.0412 51.3115
CA -31.851 -4.08914 31.4125
CA -48.7434 15.9688 75.2745
CA -37.4529 8.94998 37.784
CA -10.5341 16.9028 20.4457
CA -44.1282 3.53328 75.1908
CA -22.5893 8.60393 65.8645
CA 0.590264 31.1724 18.469
CA -54.6585 19.3853 72.6627
CA -32.5709 18.7684 59.1558
CA -42.6299 7.07163 31.5445
CA -44.957 14.2179 54.9376
CA -36.1412 -1.88485 32.9155
CA -19.3537 -14.5286 46.3731
CA -18.1404 22.7284 59.4875
CA -16.3488 23.4361 59.7915
CA -39.5651 -19.7922 63.0368
CA -53.8497 3.73061 60.9311
CA -22.199 9.43015 37.305
CA -54.6097 15.9808 78.0028
