489

CA -22.9282 5.52298 67.0865
CA -4.29392 -1.82445 77.5425
CA -4.11513 3.05935 65.8984
CA -1.37106 -11.3521 73.8954
CA -7.28156 6.68154 32.3686
CA -36.7692 17.2569 49.0972
CA -6.75644 -4.94041 72.9589
CA 1.36157 -23.4317 43.7576
CA -14.3523 16.0652 28.932
CA -27.7762 12.5315 75.1796
CA -6.95806 -8.32046 77.2591
CA -11.2617 12.7155 59.8496
CA -14.25 11.1867 11.8424
CA -44.4686 3.62257 37.8118
CA -13.425 -0.298297 38.6552
CA -32.1436 -1.03949 68.8638
CA -1.86302 0.531635 26.6478
CA -18.9472 17.5767 29.2431
CA -37.7286 -14.5423 65.3763
CA -42.3012 3.18174 39.8606
CA -9.61225 12.4614 13.8322
CA -9.91937 11.5798 60.3315
CA 31.0151 6.50677 61.054
CA -40.6417 -12.1995 64.0144
CA -45.0252 -0.573816 53.8338
CA -12.7649 14.315 58.2363
CA -41.2201 -17.5625 65.5275
CA 4.36481 -4.38465 29.8059
CA -11.2621 14.7801 17.7343
CA -24.83 -3.03697 52.6106
CA 30.95 -15.8791 40.0627
CA -2.85807 10.8346 15.8167
CA -25.4302 -1.64838 53.7837
CA -35.5394 0.376037 54.7282
CA -7.75152 -8.35248 72.722
CA -22.594 -5.99487 57.9865
CA -13.0136 -5.71036 80.9431
CA -10.7963 -8.83239 46.2429
CA -5.28774 -15.3709 17.6029
CA 5.42137 0.150393 35.1667
CA 31.7735 -5.64738 49.953
CA -16.8962 23.9237 17.9221
CA -7.70389 -10.2762 53.556
CA -24.5167 12.4863 61.8683
CA -25.8655 8.75963 33.9391
CA -9.97021 5.0153 27.3679
CA -27.9357 -2.58934 46.2626
CA -30.3811 1.02138 53.9331
CA -7.39769 -25.8201 46.8602
CA 21.8891 14.5383 22.7419
CA -24.3264 1.33429 61.4096
CA -8.79491 12.867 61.8811
CA -6.11446 22.5625 21.4235
CA -34.2596 -4.76939 59.7504
CA -17.5753 16.4409 63.6021
CA -12.7835 17.2554 21.0104
CA 0.175629 0.739206 37.1269
CA -7.80791 11.0912 18.7393
CA 0.493231 6.89011 38.0576
CA -0.865042 0.920821 73.2047
CA -4.1135 -9.46993 57.3102
CA -32.5038 10.3918 49.167
CA -27.6577 11.4261 42.0017
CA -33.94 2.71315 64.1015
CA -30.6647 16.2816 65.4473
CA -21.0631 11.8605 19.2924
CA -16.0575 6.1812 59.5901
CA -10.5817 -5.30223 25.2909
CA -12.9599 13.5909 11.665
CA -29.4065 14.1086 45.864
CA -9.15346 11.6947 16.8609
CA 11.6128 26.1497 37.5695
CA -38.4677 -2.3414 54.0865
CA -11.8735 -1.81257 29.2225
CA -27.0443 12.0063 45.187
CA -7.40358 16.2355 11.5002
CA -11.4814 7.99257 31.4565
CA 2.3151 13.7841 13.8821
CA -5.06664 -11.8479 19.3478
CA 21.1921 -4.61774 42.4663
CA -4.46531 7.41196 64.1706
CA -21.6971 4.68214 28.234
CA -2.82953 -3.2717 67.9263
CA -16.1574 16.5689 32.7934
CA -34.3681 -7.40091 67.6101
CA -11.2791 13.0133 21.8466
CA 16.9138 0.327608 45.8485
CA 12.0619 29.4173 38.5138
CA -29.5676 19.3938 68.457
CA -12.0306 10.0164 4.00122
CA 11.8621 21.518 14.8514
CA -22.6882 5.62991 69.6943
CA -15.3573 -2.31345 28.0653
CA -36.2496 0.129759 51.8546
CA -16.3339 4.32747 51.0865
CA -18.05 11.7206 62.9914
CA -13.5307 17.8999 9.85317
CA -10.104 -9.20199 77.48
CA -30.3051 10.1687 72.7066
CA -17.9214 7.40511 35.5177
CA -34.3784 -5.28319 66.2443
CA -32.794 17.5358 65.5331
CA -17.6682 18.7791 31.7946
CA -7.96003 9.38733 12.1967
CA -4.15642 -5.63427 76.6
CA -30.1584 15.3104 68.0877
CA -21.0956 2.96977 28.2421
CA -8.68335 -4.52204 34.4721
CA 1.94653 -5.88523 48.4547
CA -6.64435 -1.41022 46.7787
CA -11.5398 2.84803 28.4972
CA -36.2178 -4.51733 67.9421
CA 1.81442 27.9581 41.6014
CA -38.7692 -8.30768 61.0612
CA -0.594243 -7.4156 65.1576
CA -1.37221 -18.6688 51.7503
CA -33.6642 16.1844 46.4982
CA -23.3778 10.4018 53.2501
CA 25.0784 -5.22698 38.3145
CA 1.57442 -19.3202 44.2608
CA -13.4623 3.57463 26.9267
CA -25.4582 11.1748 64.1294
CA -35.6922 -10.4273 64.9679
CA -6.75756 -7.5594 64.8268
CA -28.0749 11.2496 67.6845
CA -21.1627 27.9494 21.6143
CA -14.0912 10.6864 19.2595
CA -20.9476 12.5479 23.4202
CA -31.2354 -5.07184 70.0865
CA -10.567 -8.32535 6.88011
CA -12.5187 4.4835 63.8435
CA 32.8628 -4.48052 53.1487
CA -19.7603 16.4285 59.9666
CA -9.43587 1.61091 28.8715
CA -11.3046 -8.74851 81.7306
CA -22.4828 2.29087 61.6113
CA 2.12183 -2.01927 59.6606
CA -3.94616 -3.22665 75.7931
CA -34.5106 -2.03185 55.2287
CA -44.099 -17.0048 55.1254
CA -37.5662 -3.94182 48.7482
CA -10.3356 -3.89973 82.3437
CA -5.10878 -0.32175 75.1038
CA -8.53527 -3.97207 47.3389
CA -7.08475 2.65996 41.8902
CA -25.6124 13.1215 49.1178
CA -15.844 1.51015 61.3656
CA 32.7419 -4.17246 40.404
CA -20.5072 1.37279 54.2516
CA -29.6979 11.7514 44.9615
CA -13.3666 -4.25224 51.2324
CA -8.34639 -16.572 17.8012
CA -4.90608 -8.12577 61.196
CA -29.35 -1.43523 57.0439
CA 13.1263 -2.45378 45.1679
CA -13.2138 2.57067 57.9835
CA -29.6579 20.0245 70.5821
CA 7.87307 16.665 36.8584
CA -0.510086 -23.1525 43.9064
CA -19.0043 25.2932 10.5487
CA -29.0412 16.3977 69.3599
CA -24.6884 5.22436 36.9752
CA 3.03601 -10.5185 52.1607
CA -21.4073 17.4558 66.278
CA -31.8738 -13.9389 49.9854
CA -13.9602 -5.52139 48.3473
CA 26.4097 -12.6561 31.7797
CA -9.10879 19.1167 42.0232
CA -10.6045 -6.70198 66.4801
CA -12.9874 -11.8663 73.7576
CA 2.39908 4.77442 39.1152
CA -11.9614 15.4877 22.6655
CA -36.938 3.46896 48.0339
CA -25.7509 14.8472 47.6871
CA -29.3005 -4.51495 47.6443
CA -15.8886 9.7069 64.0123
CA -40.1846 -0.0650362 48.7108
CA -24.7416 -4.04278 66.5424
CA -16.4398 10.3504 61.5762
CA -31.0291 -5.11021 57.2468
CA -7.98987 10.0803 57.3962
CA -13.1452 18.4025 16.7452
CA -25.9346 12.0295 73.6698
CA -22.4097 15.4503 31.9784
CA -4.45997 -3.40206 73.3778
CA -30.5437 3.78323 60.7151
CA -11.8528 -8.07707 62.2954
CA -31.2518 6.24284 69.9127
CA -7.37405 10.3492 2.88078
CA -1.92376 -15.6976 18.6468
CA -42.4167 -16.9138 61.0443
CA -12.0911 28.4213 42.9866
CA -10.8008 15.9091 20.9299
CA -4.10268 -22.3437 52.0008
CA -34.2895 -3.5241 57.874
CA -7.83855 17.1562 53.3286
CA -12.8614 25.5439 46.4172
CA -8.44838 -4.49926 78.6524
CA -34.3355 11.0645 77.2395
CA 12.9443 -12.7441 53.0489
CA -13.2143 -0.579285 61.76
CA -36.6374 14.94 50.6155
CA -29.5696 12.4942 68.6484
CA -26.9407 7.78833 68.774
CA -21.0295 13.1516 55.184
CA -27.2882 10.9098 46.7994
CA -22.6704 -3.75487 58.6615
CA -22.9198 20.6496 64.6679
CA -5.33522 -0.663478 34.8075
CA -38.5232 1.06348 63.5922
CA -33.7632 4.33825 60.2987
CA -25.9056 10.004 71.6175
CA -2.49231 -2.04003 64.0065
CA -14.7793 -0.550172 42.0959
CA -0.31708 -14.0158 20.7465
CA -28.3975 -3.36911 54.7599
CA -22.8603 6.87144 63.357
CA 15.4118 -7.39406 54.5265
CA 0.373443 -3.53792 58.5993
CA -47.6969 2.56896 42.3246
CA -33.0888 2.08623 57.489
CA -27.3841 2.62448 59.994
CA 32.5837 -1.76432 41.4095
CA -13.4688 7.11277 69.2197
CA -4.78126 -8.09809 51.0369
CA -1.74226 -10.5726 63.1448
CA -9.35724 -7.63443 47.7984
CA 8.08693 26.7241 37.1354
CA -13.2798 4.95244 33.3684
CA 16.9389 -3.89687 40.8503
CA -26.4396 16.645 61.8895
CA -14.6186 -2.97853 32.9615
CA -3.93185 -13.4772 11.1755
CA -24.7484 15.4612 66.8128
CA -8.58838 3.65367 24.0677
CA -22.1736 12.5754 57.5131
CA -5.05643 1.3231 77.5918
CA 25.2867 -1.81517 40.3672
CA -6.38712 -14.7786 20.2931
CA -17.8326 10.6883 46.0058
CA -14.8111 10.3994 33.2579
CA -24.7079 19.2956 73.1393
CA -13.4169 10.7348 9.78292
CA -31.8205 -5.1104 50.1528
CA 0.943196 -1.22634 74.9452
CA -12.8388 -3.2759 47.2032
CA -35.2163 -0.611567 48.6727
CA -36.9642 -11.8675 61.7236
CA -1.82397 -17.553 18.9909
CA -8.62913 5.78006 63.5728
CA -14.7445 -9.65953 63.37
CA -15.0837 11.3483 31.7209
CA 30.0371 -0.861344 40.4407
CA -33.7407 0.0725442 54.3243
CA -43.5598 -17.3458 57.293
CA -7.05962 4.51709 67.5329
CA -37.2001 10.2037 75.0306
CA -4.88073 -17.1802 16.2086
CA 8.13395 -9.54452 51.1556
CA -12.0787 12.8872 9.10139
CA -10.1192 16.3242 11.4307
CA 2.89726 -13.5037 50.9848
CA -20.8837 15.1644 64.2287
CA -21.7875 14.356 48.229
CA -1.72133 -4.14527 30.8019
CA -18.5194 13.0548 61.3843
CA -12.7923 4.60732 61.7865
CA 11.6926 19.4988 37.7085
CA -25.8041 6.43819 67.9862
CA -4.74916 -21.673 12.0305
CA -9.5026 -1.37891 69.9192
CA -34.004 20.1576 55.7428
CA 31.6121 8.37625 60.8433
CA -15.2172 -5.85156 52.8344
CA -1.45988 -22.97 41.955
CA -23.3988 21.5116 16.2733
CA -15.8857 8.62733 68.1375
CA 1.16838 -26.5146 46.3092
CA -27.8226 8.89753 33.3392
CA -35.5948 0.702534 66.8286
CA -18.3533 3.56104 39.1903
CA -35.9324 15.0633 48.322
CA -36.2813 1.4221 50.063
CA 0.964803 -0.286961 30.6855
CA -14.51 6.01797 64.6315
CA -17.1745 4.85853 60.2135
CA 8.53554 -13.5375 50.6567
CA -9.85994 -0.622738 46.3541
CA -19.7178 8.77077 47.1853
CA -21.8363 8.6722 35.9324
CA 26.635 -8.89572 46.1304
CA -21.3574 9.90693 60.9418
CA -9.67845 15.9 15.3878
CA -20.2485 4.3134 62.169
CA 14.0055 -5.24542 49.8088
CA 11.0008 15.8921 39.5065
CA -1.01952 -2.83719 70.9429
CA -22.0737 19.5154 68.7124
CA 0.595861 2.3672 40.6947
CA -29.4606 2.3005 62.6697
CA -9.06505 23.3439 21.9587
CA -12.2777 21.1794 12.0732
CA -23.8626 -9.44818 37.0076
CA -8.07739 -3.61981 25.3501
CA -24.5514 23.9166 19.0793
CA -33.6771 -4.18682 63.7823
CA -4.26894 -6.22136 64.9636
CA -20.6336 -0.337792 64.626
CA -39.7545 -0.154737 42.1197
CA -20.5872 6.4905 63.726
CA -24.53 1.28146 52.7606
CA -25.2437 -2.54227 50.0142
CA -39.667 -5.57248 61.5775
CA 6.93665 17.242 40.8831
CA -3.13383 -13.4356 19.0782
CA -25.1188 13.5029 45.3068
CA -6.88254 -0.322628 71.4802
CA -42.5888 -0.656744 55.091
CA -6.40589 -13.1595 18.0486
CA -5.08811 -3.84091 53.8153
CA -19.1029 5.47429 67.9887
CA -28.842 6.52919 67.5819
CA 29.1537 11.2988 57.7582
CA -1.56558 8.32394 78.2948
CA -16.0802 4.99805 66.5275
CA -4.27985 -24.5488 51.3561
CA -11.7481 11.988 11.892
CA -27.9933 -11.3086 50.3939
CA -30.4134 14.5173 64.4812
CA -26.2057 -0.567208 66.7351
CA 5.98527 2.74755 38.0282
CA -28.4073 -6.8468 50.2186
CA -30.492 15.662 47.9866
CA -27.4232 7.74932 36.506
CA -23.7685 -0.632779 66.7409
CA -29.8275 0.482065 55.7611
CA -10.6738 -15.8984 56.4324
CA -22.9087 7.36016 50.6401
CA -22.8229 11.6123 72.2467
CA -19.9001 -5.47614 78.3622
CA -5.87972 -1.16417 73.2791
CA 29.034 -1.38331 42.6543
CA -24.9487 -1.67258 60.5805
CA -18.542 26.7058 14.4557
CA -30.4671 -9.40035 44.9924
CA -12.8215 -11.4941 53.8737
CA -29.8747 -6.95515 41.3014
CA -22.3453 -0.460855 46.4732
CA -13.1584 15.7325 16.0636
CA 4.21673 -0.774202 32.5196
CA -17.7971 17.9881 71.2198
CA -30.1657 -10.6268 50.9876
CA -42.051 -2.17263 57.4444
CA -27.4462 11.79 64.9406
CA -12.9986 7.06293 30.5237
CA -46.4665 1.59177 40.2237
CA -26.456 14.4013 41.745
CA -9.78039 -12.872 18.7957
CA -10.6735 1.45435 45.9392
CA -0.486809 -17.5037 46.2309
CA -31.0958 -15.0877 51.2533
CA -1.69319 11.5241 20.1911
CA -14.3723 20.1324 46.7997
CA -8.21552 -10.899 48.9041
CA -7.18664 14.3942 7.84
CA -35.9079 -6.3148 62.6014
CA -5.21071 -15.4411 53.5641
CA -39.1421 -6.99342 57.9827
CA -28.875 0.36247 59.5341
CA 34.8716 -1.9498 40.4641
CA -13.4137 2.83871 62.143
CA -7.68394 -12.639 19.8552
CA -30.1433 12.4511 61.9421
CA -1.17124 -11.2463 69.4056
CA -32.2009 -7.02274 43.7046
CA -44.5063 -3.72446 55.2372
CA -35.2328 12.9115 47.9467
CA -9.86442 -3.90656 33.2189
CA -22.5833 14.7048 22.1
CA -17.6223 0.790197 46.5087
CA -10.463 -3.85071 72.9107
CA -34.238 -4.33501 68.7583
CA -15.7366 11.9001 14.1737
CA 25.4852 -1.95972 49.7419
CA -26.7756 3.8661 55.9805
CA -22.2378 16.9605 23.0763
CA -11.5136 18.2304 13.5923
CA 2.18652 -15.5805 49.5992
CA -8.95482 -6.38128 81.3143
CA -15.3386 13.1111 32.0174
CA -18.9459 3.6799 46.157
CA -16.6299 8.01744 13.1762
CA 30.0151 -17.4058 32.267
CA -6.03656 -8.16346 59.4906
CA -25.258 19.0557 63.7454
CA -24.4736 20.0972 66.1392
CA -17.4443 1.60234 40.351
CA -34.2756 -17.4158 68.2019
CA -30.1053 -6.82996 57.5768
CA -41.7956 -13.7335 66.3332
CA -6.75035 -5.17998 39.3708
CA 24.0474 1.10191 38.0567
CA 30.5704 -19.179 32.4189
CA -5.16854 -21.8117 44.9922
CA -7.55383 21.1616 23.862
CA -17.3203 16.7705 30.6015
CA -27.6035 -1.3111 54.4166
CA -23.2969 28.6175 54.9848
CA -32.5391 12.23 47.2497
CA -1.85446 -12.523 76.0217
CA -22.1268 16.4077 28.3865
CA -26.5092 3.02142 51.6943
CA 1.98364 -4.25882 56.8256
CA -22.2114 5.44334 64.3263
CA -17.6668 16.6314 9.40942
CA -26.7531 1.07336 59.0204
CA 0.572096 -7.56349 62.113
CA -20.4091 12.1554 48.3385
CA 11.8152 20.6473 34.0097
CA 18.8183 -2.19239 41.2058
CA -6.00322 -4.39797 27.6105
CA -29.9237 12.1746 51.2134
CA -4.576 4.11087 29.0429
CA 3.57788 -10.1014 68.9781
CA -9.96823 1.72894 33.9594
CA -1.03461 -13.3847 61.4881
CA -7.1781 -17.104 53.2341
CA -18.4314 5.45288 42.6711
CA -21.1108 20.5954 19.4272
CA -16.844 14.7092 60.5446
CA 15.2113 17.5757 39.0755
CA -44.124 -0.635254 44.7776
CA -26.217 15.2092 71.8678
CA -23.2094 3.06424 59.9302
CA -1.71434 0.420599 33.303
CA 23.3667 1.18487 41.6113
CA -3.35816 4.2807 80.061
CA -2.49461 11.856 13.7512
CA -9.26097 -26.6252 44.9074
CA -24.4771 9.77105 78.5296
CA 7.83062 0.191974 48.7611
CA -21.8678 12.0518 47.1554
CA -21.4611 9.89722 51.3909
CA -11.1757 10.9153 30.8404
CA -23.5389 17.5171 66.0322
CA -15.798 15.8919 53.6105
CA -31.0833 16.3038 69.3462
CA -12.9703 21.7636 15.2543
CA -26.9609 -9.33964 40.9369
CA -10.0067 -13.8889 58.8051
CA -25.0331 12.4797 57.71
CA -22.7217 3.64182 63.3562
CA -14.4323 7.31629 17.2069
CA -7.97561 18.0385 55.4457
CA -18.8099 16.4573 47.1161
CA -0.858993 -22.5606 47.2073
CA -10.5189 17.9398 21.4396
CA -14.1867 0.398608 36.3082
CA 15.2608 24.7843 37.799
CA -14.0304 14.2725 14.4264
CA 15.2946 -6.05825 55.9265
CA -14.5793 16.3362 61.7054
CA -30.5173 -11.7509 41.1178
CA -20.3328 21.7925 16.9094
CA -11.5926 20.2594 26.8951
CA 13.6118 -2.73345 49.6392
CA -9.50576 13.8604 18.7132
CA -6.95842 14.0025 11.594
CA -32.3261 13.4038 68.6638
CA -22.4327 -6.86405 54.1558
CA -13.3363 14.084 31.3393
CA -35.7544 13.1391 42.1916
CA -27.4549 10.1377 73.9087
CA 4.87246 -1.42411 28.9018
CA -4.76615 -4.99722 71.5508
CA 26.4092 -5.14853 46.127
CA -23.671 4.80399 71.217
CA -28.6751 4.65533 61.4676
CA -9.19938 22.2814 24.3918
CA -9.28531 17.9388 17.854
CA -16.7929 14.1904 55.7475
CA -18.8241 22.9528 16.4596
CA -15.3276 3.19867 61.8843
CA -3.62934 3.17245 77.1864
CA -35.3697 11.2746 79.3941
CA -29.6168 -2.94979 62.0338
CA 14.8744 -11.5875 54.3439
CA -41.0485 1.5765 40.2384
CA -11.2608 6.1715 66.6296
