489

CA 12.9648 -2.48028 17.3684
CA -23.161 -6.90353 47.2723
CA 1.94926 26.8484 53.2474
CA 17.78 -0.601164 20.0559
CA -33.0162 13.1437 44.1923
CA 7.2057 7.46401 52.7907
CA 14.4152 -4.5103 20.3861
CA -3.5503 -3.59044 58.4891
CA 6.11032 19.384 43.3006
CA -19.3114 9.68281 35.8478
CA 2.92881 -11.5475 76.8079
CA 15.8185 -3.99958 67.928
CA -4.41192 -8.86397 82.4182
CA -24.5857 -2.50996 62.5287
CA -4.44753 1.98836 30.3775
CA 20.7069 -6.10755 59.4893
CA 1.58375 12.3532 64.6053
CA 13.9603 5.10222 72.8844
CA 12.2122 13.4687 53.0923
CA -2.5331 -18.3389 89.4921
CA -14.5758 -6.59313 35.7393
CA 1.53303 31.3031 50.4025
CA -30.8049 3.14263 44.5548
CA 12.1796 4.03294 41.8258
CA -32.1781 -0.939396 56.196
CA 10.2973 8.69341 39.3729
CA 24.7161 18.4604 74.4671
CA -15.4309 7.61786 34.8027
CA 17.5081 -22.869 55.0031
CA 14.1823 0.685147 65.7069
CA 8.61482 17.8284 58.8942
CA -14.9312 2.54578 36.7623
CA 3.93809 -3.41058 59.247
CA 8.49359 6.10137 42.9421
CA 6.92309 5.87614 47.5062
CA -3.89077 -1.07437 26.1326
CA -12.1252 -12.4268 81.4904
CA -15.2423 2.70041 49.9
CA 22.747 3.41034 72.6244
CA -22.4033 11.7481 42.2611
CA -12.8281 3.60082 38.744
CA -5.44698 -11.3235 74.3297
CA 18.1293 -23.3973 79.9447
CA -34.7846 21.1775 51.889
CA -8.17264 -8.72923 82.3688
CA 9.63318 24.4992 46.5077
CA 14.785 7.31034 38.9242
CA 16.778 11.3462 61.3794
CA 5.0174 -0.430413 59.2931
CA 9.71529 9.10748 34.9172
CA -11.668 3.69314 46.6695
CA -2.05931 10.0726 34.0969
CA -10.9988 -14.4989 65.8118
CA 12.6245 12.1017 60.7457
CA 0.806948 -17.8258 95.7136
CA 3.49229 -16.6053 70.0209
CA 19.5518 -9.86783 50.8519
CA -39.7196 11.1457 50.6788
CA 19.2395 -1.91251 19.9908
CA -12.3826 7.25834 45.7729
CA 1.39306 -13.9327 60.9816
CA -34.0361 9.42741 46.7658
CA 20.8919 17.1666 55.447
CA -10.2048 -6.34887 37.1638
CA -8.39391 4.03545 25.0895
CA -8.07009 -25.0702 87.9665
CA -18.5812 0.656346 45.7525
CA 17.5837 22.0954 73.4162
CA -17.0395 8.44279 36.6244
CA -23.5001 -4.41283 46.5582
CA 3.52903 22.8236 48.6486
CA -2.27888 7.63281 35.5016
CA -17.9882 4.43337 36.8173
CA 7.17744 -10.2205 19.144
CA -27.4061 12.7683 43.2485
CA -2.62831 3.79242 41.5419
CA -11.145 7.12366 37.6779
CA -0.737889 -17.844 44.6897
CA 7.86282 7.80416 44.2635
CA -35.9391 10.1949 52.1199
CA -6.61674 -13.3842 62.0851
CA -20.8347 8.20995 35.7908
CA -37.8852 15.8959 53.1044
CA -8.33921 0.491767 43.8687
CA 17.9082 -16.8049 55.4249
CA 16.7527 -0.440503 66.7875
CA -16.9392 5.10856 40.3065
CA -22.979 0.570501 56.9703
CA -30.3659 -5.04254 58.0443
CA 13.7342 -0.778309 26.4326
CA 10.6939 26.288 58.5325
CA -31.6401 6.69167 47.8236
CA 9.74306 -13.1853 78.2196
CA 5.17314 -8.832 59.1085
CA 24.4083 5.12293 55.3457
CA -24.9142 -5.51698 48.8028
CA 7.82237 -2.30699 61.7596
CA -2.25072 -23.1984 59.89
CA 4.43916 8.37053 52.9099
CA -15.2117 3.89583 44.0872
CA 3.80681 30.3711 57.7164
CA -9.27316 2.6982 48.9698
CA -17.2516 -10.6484 57.9446
CA -33.2272 10.2013 49.1419
CA -13.8496 -19.1383 62.7437
CA -19.8363 9.77601 44.1983
CA -5.1868 -22.1165 85.7994
CA 17.1396 -2.77569 24.5519
CA -35.4705 -1.26973 57.1721
CA -25.2118 2.0786 72.0847
CA -5.95333 -10.0743 54.736
CA -10.6127 -22.3229 58.5591
CA -10.4517 -7.20257 78.5539
CA -10.881 0.733259 39.7483
CA 19.6691 4.25703 61.0878
CA -8.19563 -23.1815 82.8913
CA 16.1847 13.8856 32.1525
CA -18.1494 14.6191 40.9404
CA 4.99061 30 50.9587
CA -30.2261 -8.27518 70.9187
CA -32.7318 4.852 68.6406
CA -7.17586 11.9113 64.8423
CA -32.3034 20.964 55.2817
CA -9.28465 13.359 67.8322
CA -41.4279 -9.79898 76.9051
CA 3.6273 3.71782 60.6409
CA -26.0543 15.0766 41.5153
CA -17.5915 -10.6595 53.248
CA -19.266 -11.9224 56.054
CA 1.96038 24.768 53.5129
CA 14.1293 0.863869 67.4984
CA 16.3115 15.7996 37.5715
CA -10.4794 -14.4896 79.9039
CA 19.8532 10.6395 60.4073
CA -0.16987 -6.71879 57.3465
CA 1.05453 -2.04108 62.5184
CA -40.3646 12.2101 52.4497
CA 8.88525 -1.63611 60.0707
CA -18.721 3.67326 41.046
CA 13.8062 5.88364 63.1828
CA -20.0679 -2.01237 52.2469
CA -24.6174 11.8281 44.3643
CA -23.1536 3.01306 51.0141
CA -17.9631 -2.53346 49.6023
CA -26.5502 10.2554 41.4202
CA 21.2234 -25.0632 82.8661
CA 1.23891 -9.25389 87.5987
CA 9.16077 8.69436 55.5874
CA 18.613 -21.1714 51.6895
CA 8.86781 9.54606 52.4391
CA 2.00495 -12.254 59.5511
CA -7.34217 -25.3896 48.1528
CA -34.6497 -5.23163 56.4467
CA 0.207824 -19.1155 93.8203
CA 8.46231 -5.03164 55.1328
CA 9.38726 0.415264 16.5779
CA -5.47537 -0.050676 26.9
CA -28.1188 -12.9071 68.6993
CA -4.21371 3.11608 27.2711
CA -18.4591 -2.50808 56.482
CA 6.10745 9.03863 47.9661
CA 16.3287 21.6204 77.7653
CA -27.2827 -8.38106 66.7688
CA -0.065135 -12.1622 61.3882
CA -28.7035 -3.12285 58.7447
CA -4.79811 -10.3331 78.3731
CA -22.9383 14.3552 35.5568
CA -23.0162 -9.3638 55.8128
CA -8.24388 -17.467 51.5017
CA 1.67391 4.43583 57.7716
CA -6.82781 -3.80643 29.745
CA 15.6867 3.72692 69.0015
CA -35.0166 -3.56574 53.3329
CA -0.0304192 -1.0728 73.9004
CA -0.918872 -21.4663 40.5086
CA -6.76802 13.9171 71.1287
CA 19.1987 -0.684451 16.1018
CA -18.5386 -7.00443 55.607
CA 6.40225 9.93797 57.239
CA -11.9203 -14.8509 75.8272
CA -30.1013 8.2209 66.204
CA 18.4638 -4.51465 67.9867
CA -0.555156 -18.085 53.9789
CA 17.5001 -18.4681 80.7487
CA -33.9545 2.0849 75.4238
CA -14.5627 -10.2646 88.8127
CA -6.2097 -9.42844 74.9939
CA -22.6303 9.76926 32.7251
CA -40.4686 13.4649 50.6714
CA -6.89762 -0.462202 28.4167
CA 23.0965 23.9682 54.9817
CA -20.1361 17.7357 45.6845
CA -28.1351 9.03619 48.595
CA -5.47076 -12.3302 66.2069
CA -20.0884 19.7783 47.2489
CA -14.1645 -8.68152 83.5319
CA 15.4292 9.00374 72.4538
CA -10.4252 -24.3014 89.2679
CA -4.36959 11.3644 33.8775
CA 4.47122 19.1408 34.4404
CA 11.1386 8.2051 52.4015
CA 18.5426 0.669377 73.2342
CA 1.63916 0.435331 55.8695
CA -44.5237 26.3466 49.621
CA -8.70357 -17.1891 92.094
CA -9.17962 -14.4931 68.0176
CA -9.505 -22.1756 88.8862
CA -14.9535 -1.22127 45.1204
CA -28.5539 -1.36756 52.3554
CA 0.0476297 -18.8692 40.6166
CA -17.1508 6.61389 45.4441
CA -2.75164 -13.6431 52.9011
CA -5.48588 -15.2258 84.449
CA 24.1083 1.90064 73.8819
CA -11.8009 -7.03558 28.9336
CA -25.8512 14.5402 44.1911
CA 1.77976 7.84302 40.7087
CA -10.7638 -20.7653 61.0304
CA -2.00847 -4.6877 68.8999
CA 8.29734 -3.3112 21.4489
CA 16.9095 -19.851 56.0904
CA 2.35762 16.1897 50.9706
CA 14.5831 11.8005 73.8997
CA -36.8681 20.2097 44.7806
CA -15.3514 1.86144 32.0479
CA 7.96858 18.8163 50.2313
CA -13.3499 -6.67382 37.5255
CA 8.69562 15.5989 49.5546
CA 2.11017 -3.88176 68.8043
CA -6.64071 2.1834 21.9634
CA 5.4807 9.69377 54.114
CA -25.1018 -1.84277 51.867
CA -5.01185 -1.97751 52.4391
CA 14.7082 6.60739 65.6465
CA 0.814753 38.79 52.7916
CA -22.1902 1.12275 54.6006
CA -2.2023 -16.5507 53.2828
CA -35.8558 15.3477 50.3531
CA 18.5582 0.663634 62.427
CA -6.35393 4.39279 35.1436
CA 7.97658 -14.282 77.6276
CA -29.5474 11.3557 44.1108
CA -2.77531 -20.0816 88.9751
CA -7.40024 -17.3731 79.5517
CA -7.34975 -6.67899 83.8235
CA -2.20942 -7.92529 89.529
CA -5.87031 6.7919 37.9773
CA -30.933 -12.5298 70.8087
CA 1.50611 -1.18875 59.6369
CA 13.1101 12.4778 75.3435
CA -16.4053 -5.84239 30.2136
CA 19.4852 6.18074 72.5069
CA -35.3252 24.8264 49.5275
CA -15.3482 -9.9501 34.9821
CA 9.2822 -7.66146 57.0939
CA 12.8682 19.2794 74.7979
CA -7.94459 -11.7616 91.1173
CA 9.44066 7.89368 60.0875
CA -25.2404 12.2786 48.4996
CA -29.435 13.8004 38.8018
CA -42.5809 15.2946 48.8109
CA 13.9207 1.54707 69.178
CA 14.3108 -25.4952 81.9178
CA -16.8819 -17.6548 54.8722
CA 15.4309 -19.8067 81.0476
CA 6.61629 8.96255 64.5112
CA -23.4423 -0.182537 52.6094
CA 18.6824 21.7208 67.2669
CA 11.9162 5.47737 37.3057
CA 0.938642 -16.8587 65.7053
CA -4.61937 -21.4211 46.155
CA 19.4235 6.62159 59.9158
CA 22.2269 -12.2366 54.3826
CA -15.9279 -14.2233 57.1617
CA 3.67542 10.4924 50.6806
CA 4.94161 25.5277 56.8194
CA -15.8098 4.56195 49.9475
CA 9.15818 -19.0598 82.0032
CA 9.21317 12.812 49.4676
CA -8.71387 -9.9787 65.9429
CA -1.98287 -4.25382 53.7575
CA -24.2523 -1.47319 55.7988
CA -33.2018 19.2443 55.3873
CA 2.74064 24.2663 50.055
CA 1.45379 -1.4984 67.3449
CA -7.57582 -12.0605 80.3211
CA 17.3329 -0.486241 61.6471
CA -17.5623 -14.069 60.4542
CA 14.8947 13.6959 41.8236
CA -8.8573 -20.1562 89.3564
CA -9.45388 -5.95593 82.6886
CA -8.8518 0.997085 25.7549
CA 7.30834 -5.17658 14.7696
CA -21.3368 8.70944 33.6376
CA -3.86938 -9.80703 73.7735
CA 13.2163 16.2275 80.8531
CA -4.66749 -7.77835 73.8251
CA 19.5847 0.741536 17.189
CA -15.6575 5.49084 35.1021
CA -26.1648 -4.91131 63.9566
CA -28.8453 2.29042 59.9417
CA -34.5235 23.8539 41.5529
CA 3.04203 -35.8495 61.7024
CA -12.334 -22.0341 64.7307
CA 9.08276 9.99951 60.1133
CA -36.1463 19.5641 49.6213
CA -9.48564 -13.0995 57.2632
CA 19.0755 18.9178 45.5963
CA -24.0187 13.1589 32.9428
CA 15.315 1.98941 70.3836
CA -6.44991 -8.31119 76.4017
CA 19.8375 1.04353 71.996
CA 5.23365 14.0757 43.368
CA -7.31754 -21.6573 82.3003
CA 12.9046 -11.4497 84.3983
CA -28.6249 1.70394 49.905
CA 13.6558 14.6998 78.0771
CA -36.0317 23.2339 46.8726
CA -30.1144 3.88469 64.7877
CA -8.9613 7.00769 34.9286
CA 5.92183 24.6506 54.7691
CA -2.94456 -24.8073 85.2091
CA -26.3888 21.7565 34.1247
CA -11.4269 -23.0786 88.2922
CA -36.3835 11.2223 45.3639
CA -1.10103 -21.7019 37.1581
CA 9.82124 -20.4846 80.3582
CA 19.7514 18.0846 59.0068
CA 16.8939 8.79491 61.7598
CA -20.5966 -10.9059 55.2678
CA -30.4939 5.32224 47.5602
CA 7.16483 -22.6816 80.7726
CA 7.97118 -9.34004 54.8924
CA -33.1487 -6.88839 57.4511
CA 10.932 4.62409 64.0311
CA 5.05048 12.5917 61.2679
CA 18.462 17.6002 42.4749
CA 16.8796 18.2342 68.9708
CA -5.707 -24.1263 83.0314
CA 6.90946 -16.8938 74.5696
CA -1.53439 -12.2972 74.9366
CA -44.3328 28.5985 52.5746
CA 3.39154 -11.025 61.6972
CA 10.3328 7.59349 54.765
CA 3.03574 19.2906 49.4399
CA -22.4311 22.4776 35.0321
CA 7.17362 -16.0675 71.8498
CA -4.18501 -21.2232 89.6069
CA -12.4257 1.62349 44.3897
CA -0.18269 -18.3741 90.1516
CA 4.69842 -12.3685 55.772
CA 3.64145 1.59769 56.0283
CA 7.2108 17.0342 61.253
CA 2.3412 -3.7313 57.1782
CA 0.273981 8.35484 64.7661
CA 4.13291 -10.2035 58.0577
CA 5.08497 -10.3875 66.3413
CA 15.8342 14.6298 33.9648
CA -10.1387 -2.83731 41.0993
CA -24.0464 19.5359 33.8731
CA -22.6772 11.9834 51.0963
CA 6.60853 -1.54265 17.9984
CA 5.17031 -17.2763 71.5718
CA 18.119 8.76764 63.1769
CA -4.10141 0.80999 61.9611
CA 7.6221 -18.7986 71.2983
CA -33.7108 5.97525 64.6495
CA 3.95866 28.8587 54.6919
CA -11.3239 -15.3028 62.9733
CA -4.16556 9.5236 32.9265
CA 16.0216 18.3458 42.6731
CA 10.7473 9.30185 31.587
CA 6.53059 -11.7998 76.0608
CA 8.57689 21.1308 43.4415
CA 19.5319 -0.138943 58.8285
CA 14.5021 -5.33172 84.4128
CA 1.948 -16.3217 71.2541
CA 15.7523 2.63965 65.7724
CA -26.9428 7.21788 48.8417
CA 20.6896 -1.50246 62.6981
CA -23.8963 5.16499 65.3889
CA -2.16926 -13.3062 86.1599
CA -4.00785 -20.534 48.292
CA -22.1498 17.483 39.2022
CA -12.4773 -12.9861 78.8506
CA -6.97057 -19.1385 52.1677
CA 6.07077 21.7645 38.1829
CA -34.0517 12.896 49.1917
CA -5.66089 1.3827 20.383
CA 18.4861 19.4831 74.7564
CA 0.0327231 25.7938 48.9161
CA 6.3335 -9.00314 62.3607
CA -3.06979 -23.2053 36.4935
CA -18.563 19.7197 41.9615
CA -12.2171 -25.4742 92.7588
CA 9.4724 6.58812 62.0428
CA 27.3127 16.4733 68.9779
CA 6.88436 8.99472 61.1896
CA -13.1034 -16.5358 60.2698
CA -3.67999 2.34477 35.2438
CA -39.1486 -0.132352 75.2633
CA -23.2615 19.1597 46.3259
CA 11.2816 19.6022 78.8175
CA -23.4296 7.69063 34.791
CA 26.7292 15.1262 67.4196
CA 7.55218 -3.50629 19.5773
CA -4.55474 -24.6572 86.315
CA 1.64264 -15.2052 68.6015
CA -6.39394 3.52865 44.68
CA 1.63277 -18.6851 38.1512
CA 6.04901 -12.9527 66.1259
CA -40.3746 15.9442 47.9667
CA 7.82459 -5.51068 18.4747
CA -1.19744 -7.72959 63.0109
CA -9.70544 -3.60833 36.1847
CA -11.1175 -18.6698 89.109
CA 10.2282 7.20627 73.9411
CA -6.47627 -13.0598 91.7502
CA -10.3835 -2.08673 45.9137
CA 3.8214 -2.74879 63.4067
CA -15.2925 -10.1918 81.8325
CA 8.21234 22.7185 41.3906
CA -15.8764 4.08136 41.4043
CA 6.24153 13.1127 55.6871
CA 6.69767 -7.21088 59.8696
CA -13.5352 5.22159 46.0648
CA 11.3059 -18.4579 79.9626
CA 1.60816 4.24364 54.3101
CA 16.3011 -18.3418 54.9531
CA 5.84381 10.5231 63.2795
CA -39.7354 17.2734 38.8647
CA -23.3708 6.96379 50.885
CA -26.9814 11.2878 47.592
CA 1.04871 30.3341 47.7058
CA -21.6645 -1.27608 56.8664
CA 2.80276 28.2142 50.9681
CA 21.4017 17.9491 75.3163
CA 21.3191 3.45266 70.834
CA 8.96165 11.7438 57.032
CA 12.475 22.3243 57.0493
CA -40.0127 25.911 53.198
CA 13.1202 10.6957 43.7092
CA -19.538 21.3621 34.1079
CA -26.6407 7.88945 65.5429
CA -9.4719 7.03758 36.9116
CA 4.04075 2.11052 57.7172
CA -41.4596 -10.0925 79.911
CA -12.711 -22.5657 90.4076
CA -4.5665 -27.1135 81.1368
CA -37.4094 8.4433 44.5537
CA -1.61534 -11.4766 68.7187
CA -25.7164 10.916 49.6635
CA -1.99292 12.2107 32.8808
CA -33.1585 5.20576 74.65
CA 11.8949 8.02077 65.8689
CA 18.5948 3.6738 62.4635
CA 14.2888 -18.117 79.3857
CA -13.362 -19.3562 60.4972
CA -20.5684 13.5555 40.3653
CA -37.0002 -4.37151 53.1377
CA -7.39338 9.32148 36.5739
CA -35.2338 20.3718 47.9778
CA -39.1098 17.6237 50.5258
CA 8.18088 -2.97298 57.0382
CA 4.57336 -5.16284 57.3026
CA 0.462698 -11.0301 73.1477
CA -34.8965 17.019 48.5551
CA -5.01725 -21.4662 82.9883
CA 10.0463 -5.11751 64.329
CA 5.62066 -0.91037 63.1266
CA 8.83178 28.9371 49.4531
CA 13.2664 -16.7045 54.8529
CA -11.9856 -11.7215 84.2311
CA -29.8375 10.2111 38.0413
CA -3.29538 -14.0942 94.4468
CA 14.1938 8.52789 65.1809
CA 3.26843 -6.49266 58.9669
CA 6.09382 28.405 51.4663
CA -35.7076 17.9895 46.4984
CA -10.7711 -5.1912 28.9376
CA 9.93242 24.6671 62.1338
CA -0.239222 -5.58923 63.6851
CA -1.26396 -5.0152 71.8469
CA 5.69053 20.2334 47.8594
CA -0.180324 8.15023 34.6126
CA 20.2413 1.19017 57.6645
CA -44.1682 10.9358 47.4209
CA -7.30929 2.83239 46.5224
CA -29.9628 5.64035 63.96
