489

CA -2.88428 -9.08843 65.1463
CA 17.1454 4.04429 72.786
CA 11.6487 -15.0718 72.142
CA -10.8653 7.31821 37.5822
CA 3.1913 -6.67297 63.8418
CA 7.2057 7.46401 52.7907
CA 13.2201 -6.77407 87.4656
CA 10.1199 -5.63828 54.474
CA 11.5265 17.9482 41.0149
CA -33.9168 7.01608 51.1094
CA 8.86062 4.09307 74.7803
CA 24.0296 -0.934254 64.4845
CA -11.2252 4.39416 34.0637
CA 6.27322 -9.95797 59.5834
CA -4.44753 1.98836 30.3775
CA 4.83683 10.764 54.3712
CA -25.4649 -0.402749 58.8797
CA -6.64443 -8.32141 90.2171
CA 4.80209 -5.59504 70.5349
CA -14.6148 6.63674 35.1046
CA -2.79045 -21.214 89.7182
CA -1.43211 -9.62433 57.789
CA -8.89332 -14.289 70.1224
CA 14.6446 11.4832 39.6611
CA 13.22 8.05578 36.4332
CA 18.5994 22.7473 59.4935
CA -8.28773 -11.5614 84.0394
CA 9.05451 -25.5618 77.2033
CA -5.60727 -4.79035 63.1623
CA 14.1823 0.685147 65.7069
CA 1.92811 -1.95827 72.9835
CA 12.602 13.2742 59.761
CA -25.6614 4.69884 65.0636
CA 6.98819 12.5216 52.4509
CA 6.92309 5.87614 47.5062
CA 22.7155 -2.10525 65.4794
CA -12.1252 -12.4268 81.4904
CA -3.811 -15.8417 91.3449
CA 18.4811 -14.1765 51.0918
CA -16.1094 0.0471379 56.0758
CA -12.8281 3.60082 38.744
CA -5.44698 -11.3235 74.3297
CA -8.53552 -8.29658 54.7014
CA -34.7846 21.1775 51.889
CA -8.17264 -8.72923 82.3688
CA -29.4312 13.1864 43.096
CA 3.19497 12.0941 50.9938
CA -24.3359 16.2169 42.4959
CA 19.0671 12.5959 58.7864
CA -12.515 -19.0847 53.382
CA -9.395 -24.4203 66.7004
CA 9.98858 -16.0606 71.5988
CA 2.75739 -8.86269 56.7589
CA -21.5321 11.1046 37.8726
CA -7.20392 -12.8518 84.8435
CA -38.2726 10.2375 49.7712
CA 30.692 -0.0510117 67.4424
CA -5.26971 -9.52711 80.3882
CA 1.74399 -3.84656 62.7782
CA 8.02829 -1.30966 64.8303
CA -13.0146 -17.1327 78.6966
CA -9.03056 -13.9883 90.1098
CA 20.8919 17.1666 55.447
CA -8.32205 4.49875 40.203
CA -28.6366 4.3209 74.7227
CA -33.9401 0.309381 72.1465
CA -20.1057 3.90108 53.1965
CA -11.1942 -16.5244 74.958
CA 5.69516 13.3343 45.9564
CA 11.9726 23.0573 79.0546
CA 7.39602 -14.9238 70.1667
CA -30.6907 -10.8268 73.2641
CA 5.98669 -7.48253 68.5964
CA 7.17744 -10.2205 19.144
CA -23.4706 -1.41828 51.829
CA -11.4637 -15.0307 71.5116
CA 19.2905 -4.94559 64.0371
CA -0.737889 -17.844 44.6897
CA 26.7373 -3.00701 67.7699
CA -22.48 23.7769 33.6188
CA -6.61674 -13.3842 62.0851
CA -20.8347 8.20995 35.7908
CA 0.228954 0.335462 74.7848
CA -13.6386 -23.0978 90.6251
CA -35.3625 22.294 49.6976
CA 16.7527 -0.440503 66.7875
CA -9.06974 -27.0042 90.4281
CA -3.55047 -19.9002 92.3386
CA 21.8788 19.1829 58.9087
CA 13.7342 -0.778309 26.4326
CA 10.6939 26.288 58.5325
CA -0.488504 5.402 34.9189
CA -1.50345 8.61098 39.2362
CA -29.9334 10.0875 71.3023
CA -9.67941 -12.8012 50.1668
CA 12.2727 1.34877 59.3333
CA 3.38296 4.46991 44.9524
CA -34.1111 15.6243 46.4367
CA -31.9186 6.29945 70.6414
CA 6.82367 -10.1729 55.8232
CA -34.4079 25.605 46.8772
CA -4.64735 -18.3616 42.819
CA -0.577245 -1.26775 59.1527
CA -9.27602 -1.63167 88.6146
CA -13.8496 -19.1383 62.7437
CA -19.8363 9.77601 44.1983
CA -5.1868 -22.1165 85.7994
CA 17.1396 -2.77569 24.5519
CA -35.4705 -1.26973 57.1721
CA 15.1469 -0.140955 61.4735
CA 11.6133 -17.7669 70.8714
CA 7.70542 10.6437 64.4349
CA -10.4517 -7.20257 78.5539
CA 9.67532 -26.8739 84.1392
CA -25.5 11.0494 36.1931
CA 21.2149 -3.99568 64.8221
CA -1.56664 -3.06529 64.1203
CA -28.2183 8.32512 48.8886
CA -16.6903 -8.08999 55.7174
CA -12.5111 -15.8004 66.0859
CA -32.7318 4.852 68.6406
CA -30.4375 8.10198 49.3817
CA -32.3034 20.964 55.2817
CA -11.9751 -16.9462 51.8611
CA 18.0137 -20.225 56.682
CA -8.99678 -14.6063 96.2833
CA 12.9535 -16.9528 72.0132
CA 1.43355 5.42958 41.2169
CA -1.68157 1.11443 23.1187
CA 19.9613 -2.81543 56.4354
CA -7.93088 -20.4051 94.6107
CA 0.286392 13.5289 60.8495
CA -12.0487 -7.22911 73.9317
CA 19.8532 10.6395 60.4073
CA 20.4094 -21.9498 84.1312
CA -17.6997 12.8084 42.1829
CA -16.3718 5.37692 36.7414
CA 6.27267 27.8893 52.7061
CA 18.293 -0.436755 58.1241
CA -5.78895 -25.5395 55.8002
CA -13.8177 -18.6585 54.7497
CA -24.6174 11.8281 44.3643
CA 9.09955 -24.2215 83.223
CA -10.213 -19.9848 55.3331
CA -26.5502 10.2554 41.4202
CA 0.8143 -7.05051 57.8558
CA 1.23891 -9.25389 87.5987
CA 18.0101 17.3168 44.1103
CA 18.613 -21.1714 51.6895
CA -7.36582 -17.5139 87.7769
CA 10.767 -27.1748 81.1412
CA 14.8926 20.8619 66.599
CA -6.10019 -11.6271 53.8582
CA 9.83399 7.1117 36.4862
CA -9.72596 -16.3102 52.9335
CA -10.4572 -16.3375 48.475
CA 18.0586 -0.325619 54.7801
CA -28.1188 -12.9071 68.6993
CA 1.77455 -10.034 85.7545
CA -1.9284 -5.66898 88.331
CA -25.9823 1.89912 45.7964
CA 19.7913 1.30652 56.5985
CA 9.983 -26.8482 86.0732
CA -7.8432 -14.7592 87.252
CA -28.7035 -3.12285 58.7447
CA -41.0719 0.447052 58.0793
CA -23.6877 16.0027 40.6257
CA -35.3356 0.694135 58.9019
CA 15.0714 -0.930691 66.0048
CA -19.2248 -17.8615 54.4895
CA -28.4583 8.08725 40.7928
CA -12.7095 -23.8102 59.3482
CA -9.56018 -5.02863 58.6366
CA 17.4835 20.9092 67.4294
CA 1.6028 7.5891 53.2677
CA -21.7286 2.982 60.39
CA 19.1987 -0.684451 16.1018
CA 9.4647 10.6019 59.7114
CA 6.40225 9.93797 57.239
CA -11.9203 -14.8509 75.8272
CA 13.3761 12.3501 64.1445
CA -6.31721 -12.8516 92.747
CA 17.2956 18.3645 66.7962
CA -8.58597 7.16525 38.5313
CA -8.4055 -17.3094 53.8289
CA 20.7592 3.60661 18.4956
CA -32.1554 -4.19672 60.1803
CA 18.7653 18.5023 72.9006
CA -40.4686 13.4649 50.6714
CA -40.3943 -0.641252 52.37
CA 6.42335 -1.86178 15.8956
CA 20.552 -10.6638 52.7938
CA -43.5802 13.4621 45.2326
CA 25.2663 -1.71051 60.1095
CA 5.12021 -4.16192 61.7913
CA -14.1645 -8.68152 83.5319
CA 15.4292 9.00374 72.4538
CA -10.4252 -24.3014 89.2679
CA -4.36959 11.3644 33.8775
CA 12.499 0.312348 17.2291
CA -26.4113 -0.291756 51.1131
CA -36.8614 20.588 49.4569
CA 4.22162 6.36561 51.3901
CA 3.86597 13.7574 60.1895
CA -8.77769 -8.04414 91.0661
CA 23.1256 0.260975 62.6536
CA -4.96492 -7.19722 73.841
CA -14.9535 -1.22127 45.1204
CA -22.7418 2.86375 68.3182
CA 0.0476297 -18.8692 40.6166
CA -8.66937 -1.53262 27.4434
CA -23.5929 9.05676 45.7833
CA -11.9624 -6.40053 89.7764
CA 3.02494 -0.477881 60.5061
CA -10.0394 -6.17583 86.1241
CA -25.8512 14.5402 44.1911
CA -32.1666 -0.414186 53.687
CA 15.4277 18.3613 71.6849
CA 18.1937 7.49069 62.164
CA 7.48895 6.77981 75.7346
CA -27.4794 8.27266 63.9151
CA -36.7001 1.80905 53.6286
CA -19.9434 -3.51028 32.088
CA -1.80895 0.0663983 25.0356
CA -16.5047 -3.21675 55.4799
CA 7.96858 18.8163 50.2313
CA -13.2863 -9.02174 59.7925
CA 10.1305 -12.5492 71.6301
CA 2.11017 -3.88176 68.8043
CA 20.6202 -0.30847 68.8822
CA -2.33408 4.76967 30.8515
CA -16.3704 13.1227 40.1585
CA -10.943 -5.76536 87.6988
CA -24.5821 3.79841 59.9327
CA 0.814753 38.79 52.7916
CA -22.1902 1.12275 54.6006
CA -2.2023 -16.5507 53.2828
CA -5.34077 -14.2945 69.9464
CA -21.0163 11.3252 35.6777
CA -6.35393 4.39279 35.1436
CA 19.2259 3.01319 64.8575
CA 17.617 2.02857 19.0548
CA 17.323 11.4637 67.9895
CA 1.45706 -21.9996 47.6042
CA -3.86894 -20.8804 43.7342
CA -35.4829 3.74087 67.4511
CA -29.7082 9.34629 66.2688
CA -30.933 -12.5298 70.8087
CA -7.24763 -1.88975 56.989
CA -31.4269 0.202594 59.1991
CA 23.1703 -16.3746 49.0325
CA 19.4852 6.18074 72.5069
CA -34.0481 24.4205 58.2392
CA 18.344 -15.0073 53.5338
CA 10.4978 -3.03386 92.726
CA 7.62802 -18.5974 72.2702
CA -7.94459 -11.7616 91.1173
CA 20.8795 3.87198 69.5581
CA 14.5957 -2.25867 64.2011
CA 0.542898 -4.0421 71.0193
CA 9.32981 -18.9578 78.0358
CA -1.13607 -16.469 42.7293
CA -16.7644 10.4586 43.2559
CA -9.47659 -12.2141 72.5571
CA 15.4309 -19.8067 81.0476
CA -28.3488 10.7144 44.202
CA 2.41118 -9.12461 60.2539
CA -10.4588 -8.01749 88.6027
CA 3.69524 -9.02311 71.903
CA -7.84174 -6.81093 76.157
CA -4.61937 -21.4211 46.155
CA 16.8755 1.8263 68.7084
CA -2.13857 -4.68682 28.4729
CA 18.7089 19.2501 36.8286
CA 15.604 19.0316 41.5118
CA -21.4591 1.7799 50.6253
CA 4.9605 -8.00251 88.0198
CA 19.3812 2.34783 17.001
CA 18.6168 -2.64106 59.2604
CA 12.2704 9.19877 73.6257
CA 18.5129 -14.3124 46.1461
CA -0.787374 -22.5498 45.3903
CA -33.2018 19.2443 55.3873
CA -2.49636 -24.7384 88.9161
CA -2.20432 25.4055 50.7841
CA 10.5303 12.0722 39.5991
CA 17.3329 -0.486241 61.6471
CA 17.0733 11.259 76.3732
CA 10.174 -12.3835 74.4943
CA -24.698 19.6843 41.8908
CA -31.3918 2.78044 76.4358
CA -1.00865 -24.3024 47.3739
CA -7.81132 -6.13048 27.7963
CA -17.4426 -5.11985 33.874
CA -5.64316 -14.4665 53.6875
CA -5.13855 -14.0775 91.9904
CA -8.25048 -13.8557 93.0462
CA 16.1249 9.94601 62.6053
CA -0.642745 -19.3966 83.8093
CA 15.2493 10.9274 72.1523
CA -28.8453 2.29042 59.9417
CA 11.3833 -4.67483 15.6733
CA 3.86294 -14.2092 73.3718
CA 9.85654 -23.6924 78.888
CA -3.74475 -9.79988 90.6555
CA -25.0291 -3.85163 60.3291
CA -9.48564 -13.0995 57.2632
CA -9.82667 -6.22911 82.1518
CA -7.38675 8.68602 29.399
CA 10.4482 8.73832 42.4299
CA -25.5034 13.4859 50.1384
CA -31.7042 1.53248 70.7994
CA -17.8402 -20.4121 60.05
CA -4.17563 -19.8378 51.3012
CA -37.706 26.7833 46.1963
CA 21.2546 -14.6097 50.0642
CA 13.6558 14.6998 78.0771
CA -36.0317 23.2339 46.8726
CA 15.9993 16.165 39.8168
CA 6.96983 13.2403 48.3081
CA 1.68868 -5.089 60.3405
CA -6.01427 -7.79816 83.913
CA 6.51453 -19.2035 77.6994
CA 15.595 -16.3142 71.4164
CA 2.98651 -10.0628 90.5884
CA 5.55494 14.5195 59.0231
CA -29.4984 -0.53826 56.9236
CA 19.7514 18.0846 59.0068
CA 13.6463 15.747 79.8182
CA -20.5966 -10.9059 55.2678
CA -11.0833 -18.9728 58.9821
CA 7.16483 -22.6816 80.7726
CA -18.1491 0.00360101 51.9171
CA -2.75225 -25.4271 59.463
CA 5.52581 -4.89329 53.7324
CA 5.05048 12.5917 61.2679
CA 20.5881 8.22873 63.0991
CA -29.987 7.40469 47.3184
CA 4.52869 -5.54563 75.553
CA -32.4236 -0.819489 69.9207
CA -24.8373 4.52287 47.8189
CA 7.53723 -2.72175 70.6416
CA -5.69243 -17.0013 52.3361
CA 0.438539 -8.66069 62.2905
CA -19.0946 19.3155 39.1508
CA -22.4311 22.4776 35.0321
CA 7.17362 -16.0675 71.8498
CA 7.57907 30.7928 59.1043
CA 13.3061 -4.94516 62.4943
CA -20.7089 20.8136 40.6259
CA 21.3788 -1.63817 56.1346
CA 19.7932 1.37425 68.2702
CA 19.4026 8.70162 64.3957
CA -27.6779 9.01976 66.0017
CA 12.3143 19.0165 74.6009
CA 5.18252 6.08726 64.791
CA -22.1696 4.59362 35.835
CA 20.4516 25.4367 58.8259
CA -39.6237 -0.349536 56.6673
CA 2.14954 13.5943 63.0644
CA -25.9485 7.54963 42.074
CA -31.0029 5.92591 51.2598
CA -41.1231 20.0476 45.4285
CA -11.9999 -22.5973 57.3783
CA -26.6779 17.7289 36.2639
CA 16.7709 1.14256 15.2915
CA -14.7376 9.25364 38.6159
CA 11.5655 -17.8544 73.665
CA 9.8218 7.93267 58.6589
CA -21.6921 6.81227 44.9127
CA 15.5781 22.1428 69.8797
CA 21.6233 -16.8749 50.7198
CA -12.8032 7.48249 36.003
CA 10.1682 -7.58776 91.1537
CA 25.2724 0.278159 67.0486
CA -0.518243 -21.7122 84.6561
CA 18.7928 -4.8889 66.8703
CA 6.3249 -9.10731 91.9058
CA 21.9425 10.9923 59.9026
CA 11.2808 -11.842 55.0367
CA 1.34984 11.5411 47.9188
CA -2.16926 -13.3062 86.1599
CA -6.70149 -9.96778 73.123
CA 13.7711 14.9428 57.0413
CA -8.29321 -10.7492 56.1012
CA 0.0236724 -2.83377 27.0831
CA 11.1619 -22.5663 83.5383
CA -22.4139 10.6273 46.1771
CA -10.4165 -15.0816 90.878
CA 18.4861 19.4831 74.7564
CA 0.84012 0.56073 63.6882
CA 2.58679 -8.34558 75.2646
CA 25.4725 -15.521 48.6586
CA 6.32972 -7.18827 54.0467
CA 9.47956 7.52258 56.1199
CA -21.0838 22.2678 37.5142
CA 11.0151 21.8929 44.1701
CA 17.7819 -3.98011 68.7523
CA 8.10369 -17.9551 76.3901
CA 13.622 -14.866 47.4216
CA 16.8928 13.784 39.3026
CA 15.5736 13.5554 72.8015
CA 18.8488 16.5237 68.9981
CA 14.5581 -12.6378 55.0618
CA 26.7292 15.1262 67.4196
CA -29.4416 0.926283 77.3679
CA 25.2341 -6.58795 62.7552
CA 17.7275 -18.5369 52.9393
CA -12.9536 10.9146 35.4182
CA 10.4336 -14.2145 75.0352
CA 8.02055 -13.5854 71.5821
CA -40.3746 15.9442 47.9667
CA 2.1278 -2.65827 16.7277
CA -1.19744 -7.72959 63.0109
CA -14.672 0.0491496 46.5204
CA 5.18233 -8.95911 75.994
CA -1.50963 -22.0083 91.6916
CA 0.314944 -4.3568 64.0808
CA 10.7271 11.7758 63.9294
CA 6.84941 -7.11839 66.2819
CA 17.7441 18.1729 42.3071
CA 8.21234 22.7185 41.3906
CA -1.42926 -0.616676 26.7633
CA 15.2189 8.12798 63.2148
CA -11.1754 -25.4684 90.7292
CA -3.99219 5.0369 23.6373
CA -6.03778 8.19283 32.7335
CA -9.63621 -25.142 70.5382
CA 3.24837 -28.1732 81.4809
CA 16.7443 -20.3647 52.5156
CA -29.6938 8.39244 72.767
CA 3.9232 -7.71355 62.1694
CA -26.9814 11.2878 47.592
CA 1.04871 30.3341 47.7058
CA -17.164 4.3531 32.4592
CA -11.7001 -22.3714 53.0595
CA -10.0639 -4.56167 74.0928
CA 16.7394 2.2607 17.0724
CA 11.6786 -3.18925 60.8009
CA -12.5199 -11.7077 84.7419
CA -19.9529 -1.36777 54.7879
CA 13.1202 10.6957 43.7092
CA -19.538 21.3621 34.1079
CA -12.9613 0.547017 45.0935
CA -19.9551 10.9043 47.2273
CA -30.6337 4.72394 76.4421
CA 14.1137 3.31585 63.5654
CA 16.0338 20.2321 71.3059
CA 11.8247 7.78822 54.44
CA -16.2156 -2.09308 49.2895
CA -1.17914 -7.93095 67.2223
CA -36.6008 -5.88512 59.2594
CA 22.1348 1.39829 65.877
CA -17.283 -2.86297 47.2403
CA -1.97463 -18.2851 41.8605
CA 12.6268 15.8034 41.0022
CA -8.94764 4.51186 35.5893
CA 8.21334 -4.855 15.5395
CA 11.0347 9.58488 60.8008
CA -37.0002 -4.37151 53.1377
CA 19.7978 17.5143 74.2
CA 5.38641 -8.79863 52.4178
CA 7.33583 -12.3123 54.0551
CA -21.4659 14.7598 37.4861
CA 22.6548 -1.90585 58.0527
CA 0.462698 -11.0301 73.1477
CA -9.36961 -20.747 56.9076
CA -9.4065 -24.7063 92.0004
CA 12.2559 19.624 76.4312
CA 4.29062 23.7572 49.0265
CA -7.68866 -22.1762 54.5514
CA 13.2664 -16.7045 54.8529
CA 16.3941 -13.9132 53.3959
CA -2.47226 -8.48485 86.0168
CA -11.23 -13.5228 89.2546
CA -2.19964 -22.1732 93.4681
CA 3.26843 -6.49266 58.9669
CA 9.69081 -18.5665 74.508
CA -35.7076 17.9895 46.4984
CA 4.53106 -7.23274 84.8434
CA -7.61382 -24.391 59.328
CA -3.57502 -11.5429 64.9569
CA -5.52622 -17.0605 49.4828
CA -19.2056 21.4358 38.0606
CA 14.8373 19.4635 73.1289
CA -13.0028 -24.69 89.1335
CA 23.4577 -17.0526 54.5385
CA -4.45733 -7.02174 61.9237
CA -29.9628 5.64035 63.96
