489

CA -2.88428 -9.08843 65.1463
CA 17.1454 4.04429 72.786
CA 15.9123 -4.18205 89.4549
CA -12.1415 -13.9323 83.539
CA 3.1913 -6.67297 63.8418
CA -21.6573 2.61954 62.3998
CA 13.2201 -6.77407 87.4656
CA 10.1199 -5.63828 54.474
CA 9.77918 22.3896 80.3337
CA -33.9168 7.01608 51.1094
CA 8.86062 4.09307 74.7803
CA 24.0296 -0.934254 64.4845
CA -11.2252 4.39416 34.0637
CA 6.27322 -9.95797 59.5834
CA -4.44753 1.98836 30.3775
CA 4.83683 10.764 54.3712
CA -25.4649 -0.402749 58.8797
CA -6.64443 -8.32141 90.2171
CA 8.68737 11.3535 38.9637
CA -15.9892 -16.8384 49.4024
CA -26.3766 5.49928 73.5237
CA 2.13868 -6.83249 71.1161
CA -1.20366 -6.19877 83.2119
CA 14.6446 11.4832 39.6611
CA -3.46283 -17.9818 37.6708
CA 18.5994 22.7473 59.4935
CA 12.3491 -28.6066 84.4889
CA 9.05451 -25.5618 77.2033
CA -3.92441 -25.9036 89.2247
CA 14.1823 0.685147 65.7069
CA -13.1655 -9.95783 81.0056
CA 12.602 13.2742 59.761
CA -25.6614 4.69884 65.0636
CA 6.51797 -17.0316 71.7809
CA -2.19239 9.48486 43.0582
CA 13.021 -0.218273 14.7636
CA -2.97466 -26.4775 91.1556
CA -30.98 -0.443269 66.4367
CA -13.3901 -18.6972 58.1655
CA -16.1094 0.0471379 56.0758
CA -12.8281 3.60082 38.744
CA -5.44698 -11.3235 74.3297
CA -1.72908 -22.7965 51.782
CA -34.7846 21.1775 51.889
CA -8.17264 -8.72923 82.3688
CA -29.4312 13.1864 43.096
CA -25.6972 14.7103 41.6309
CA -31.1524 11.0873 42.0679
CA 21.5293 -13.0562 48.5798
CA -14.2319 -23.3155 55.2265
CA -29.9924 7.21393 54.1366
CA 12.8099 -12.5151 56.5503
CA 12.7619 -8.874 85.5807
CA -28.4602 -4.81946 59.949
CA 14.4404 -16.0138 73.6237
CA -23.0606 3.9087 48.7254
CA 30.692 -0.0510117 67.4424
CA -5.26971 -9.52711 80.3882
CA -4.82186 -1.81392 91.5821
CA 6.06096 15.5085 51.4651
CA -13.0146 -17.1327 78.6966
CA 5.68446 4.48339 45.3929
CA 20.8919 17.1666 55.447
CA -36.5484 24.2559 58.1695
CA 8.38025 -16.2715 68.8103
CA -39.3955 -4.28909 51.8936
CA -9.23514 -17.3782 78.2556
CA -11.1942 -16.5244 74.958
CA -10.2702 7.20391 34.9115
CA -35.8924 11.2669 51.3031
CA 7.39602 -14.9238 70.1667
CA -30.6907 -10.8268 73.2641
CA 7.48142 5.38784 60.6851
CA 7.17744 -10.2205 19.144
CA -19.4666 10.1171 47.8654
CA -11.4637 -15.0307 71.5116
CA 20.3214 5.34653 18.1488
CA -34.3676 18.8077 48.7573
CA 26.7373 -3.00701 67.7699
CA 5.42015 18.1339 49.7101
CA 5.35595 -4.18516 66.4546
CA -20.8347 8.20995 35.7908
CA 0.228954 0.335462 74.7848
CA -9.39913 -18.7025 93.8351
CA 1.05304 -20.3527 40.399
CA -6.97309 -10.977 65.6601
CA -15.0868 -9.52987 89.2226
CA 17.9513 0.256109 15.1105
CA 21.8788 19.1829 58.9087
CA 30.0633 1.86247 73.3395
CA 10.6939 26.288 58.5325
CA -0.488504 5.402 34.9189
CA -1.50345 8.61098 39.2362
CA -29.9334 10.0875 71.3023
CA -9.67941 -12.8012 50.1668
CA -2.25755 -15.6898 38.4161
CA 3.38296 4.46991 44.9524
CA -7.41534 -15.4494 51.8103
CA 5.20178 -21.1126 81.8217
CA -20.0182 -18.4207 52.5214
CA -7.42939 1.12249 59.1919
CA 12.5797 -14.3544 77.1159
CA -0.577245 -1.26775 59.1527
CA -9.27602 -1.63167 88.6146
CA 4.65735 -9.27412 50.3834
CA -19.8363 9.77601 44.1983
CA -5.1868 -22.1165 85.7994
CA -13.7412 -15.4911 67.409
CA 17.7324 -5.01895 57.1056
CA 15.1469 -0.140955 61.4735
CA -8.77588 2.49372 27.9035
CA -32.9239 16.1615 48.8663
CA -5.74003 -27.7444 89.0489
CA -2.23072 -4.0819 90.9828
CA -25.5 11.0494 36.1931
CA -38.9104 0.583331 59.6774
CA -6.90958 0.937396 63.9749
CA -26.2879 8.7545 36.9092
CA 9.53347 20.4861 84.8699
CA -20.3969 -0.579926 46.6356
CA -32.7318 4.852 68.6406
CA -30.4375 8.10198 49.3817
CA -29.9465 0.263551 63.2282
CA -11.9751 -16.9462 51.8611
CA 10.191 18.3209 74.1393
CA -8.99678 -14.6063 96.2833
CA -8.25398 -16.2171 64.0133
CA 26.0003 -4.81195 66.3301
CA -23.0706 9.13459 65.903
CA 19.9613 -2.81543 56.4354
CA -7.93088 -20.4051 94.6107
CA 18.8128 -13.9543 57.9061
CA 8.46235 8.16589 61.1815
CA 10.6253 -19.8858 82.7272
CA -22.4295 17.5264 39.8773
CA -17.6997 12.8084 42.1829
CA -3.82385 -21.5262 48.1222
CA -8.87619 -18.0375 65.6525
CA 18.293 -0.436755 58.1241
CA -5.78895 -25.5395 55.8002
CA -13.8177 -18.6585 54.7497
CA -24.6174 11.8281 44.3643
CA -14.2025 -10.7679 82.4437
CA -10.0779 -14.9465 92.9348
CA 10.8864 -6.44769 56.1124
CA 0.8143 -7.05051 57.8558
CA -27.6771 -0.136586 60.5889
CA 18.0101 17.3168 44.1103
CA 18.613 -21.1714 51.6895
CA 7.43377 -1.25028 60.232
CA 3.26988 3.90739 48.6386
CA 26.1848 3.95812 68.2412
CA -3.98455 -7.73355 92.365
CA 9.83399 7.1117 36.4862
CA -9.72596 -16.3102 52.9335
CA -14.9652 -16.7788 76.3373
CA 10.3258 -20.7271 74.661
CA 6.73457 18.835 79.7253
CA 1.77455 -10.034 85.7545
CA 3.75381 14.2408 52.0839
CA 8.07845 -26.9214 79.1098
CA 16.8185 -23.0289 81.2878
CA -24.8577 2.53615 46.3213
CA -4.48084 -11.1981 52.7885
CA -3.10139 2.81463 36.0479
CA 0.2654 -13.838 57.6734
CA -23.6877 16.0027 40.6257
CA 18.8903 10.3921 68.7363
CA 18.7154 5.8058 75.4611
CA -19.2248 -17.8615 54.4895
CA 5.47688 -18.9136 71.5183
CA 1.0143 9.52618 46.4635
CA 24.7163 3.92095 74.5841
CA 7.05512 8.9568 67.1669
CA 1.6028 7.5891 53.2677
CA -21.7286 2.982 60.39
CA 8.60618 6.55828 73.5055
CA 9.4647 10.6019 59.7114
CA -17.7427 15.0563 36.7521
CA -11.9203 -14.8509 75.8272
CA 0.117729 -10.7854 90.1844
CA -8.11231 -18.3223 55.6387
CA 9.72009 -6.83876 69.4451
CA -8.58597 7.16525 38.5313
CA -8.4055 -17.3094 53.8289
CA 20.7592 3.60661 18.4956
CA 9.17403 10.8394 46.0308
CA 18.7653 18.5023 72.9006
CA -20.1813 -17.815 49.228
CA 15.7724 13.4178 79.9265
CA 6.42335 -1.86178 15.8956
CA 6.57792 19.8355 46.6992
CA -9.11234 -15.7183 70.9918
CA 25.2663 -1.71051 60.1095
CA -6.35471 -7.00503 63.7788
CA -14.1645 -8.68152 83.5319
CA -7.33694 -11.2423 85.8349
CA -10.4252 -24.3014 89.2679
CA 3.92864 12.5697 55.7313
CA 12.499 0.312348 17.2291
CA -26.4113 -0.291756 51.1131
CA -36.8614 20.588 49.4569
CA -2.61449 -10.9486 82.5952
CA -35.5042 8.59613 67.3949
CA 20.421 16.9868 60.4107
CA -5.81102 -12.752 68.1315
CA 11.3999 -13.188 58.0914
CA -4.91014 -5.64025 59.352
CA 2.91912 6.76435 61.4139
CA 13.8019 -1.48626 56.0568
CA -8.66937 -1.53262 27.4434
CA -23.5929 9.05676 45.7833
CA -11.9624 -6.40053 89.7764
CA 3.02494 -0.477881 60.5061
CA -17.8355 -7.74804 53.1704
CA -30.7338 0.949936 79.6916
CA -32.1666 -0.414186 53.687
CA -2.43308 -20.0982 53.2323
CA -29.2732 7.04446 76.0112
CA 7.48895 6.77981 75.7346
CA -28.1924 -0.474893 76.6203
CA -36.7001 1.80905 53.6286
CA 19.2082 13.3246 74.208
CA -16.4665 6.27496 44.3259
CA -29.6373 -1.50709 64.3142
CA 7.96858 18.8163 50.2313
CA 22.6477 4.07019 70.0321
CA 12.3493 1.3861 66.8886
CA -12.4993 -13.2484 97.6499
CA 26.8702 -7.03149 62.1265
CA -15.2828 9.89146 47.6661
CA -31.9302 -2.99577 78.3887
CA -27.333 0.538687 73.9729
CA -5.93153 -16.0832 67.9623
CA 9.95083 -14.3669 69.7282
CA -22.1902 1.12275 54.6006
CA 4.89803 0.514099 60.7917
CA -5.34077 -14.2945 69.9464
CA -21.0163 11.3252 35.6777
CA 14.3488 21.0117 79.5351
CA 5.15654 6.73267 51.2825
CA 6.84726 7.09747 66.9074
CA 14.7955 -17.1602 82.2439
CA 9.30859 18.8776 78.1514
CA 17.2238 7.04236 76.1825
CA -35.4829 3.74087 67.4511
CA -29.7082 9.34629 66.2688
CA -10.4668 -18.2011 49.9988
CA -7.24763 -1.88975 56.989
CA 18.6345 -1.72708 64.6293
CA 23.1703 -16.3746 49.0325
CA 16.9384 -3.48019 64.6682
CA -5.41714 -2.16588 64.596
CA 17.0715 -1.41933 53.5034
CA -31.2029 -2.5137 59.1853
CA 7.62802 -18.5974 72.2702
CA -7.94459 -11.7616 91.1173
CA -6.05425 -8.52693 54.4943
CA 14.5957 -2.25867 64.2011
CA 0.542898 -4.0421 71.0193
CA -17.6131 -16.4532 51.0596
CA -1.13607 -16.469 42.7293
CA -16.7644 10.4586 43.2559
CA -18.3738 -3.70852 51.0422
CA 15.4309 -19.8067 81.0476
CA 18.5496 -26.5782 79.3632
CA 0.224439 -8.84193 64.6405
CA -10.6568 12.1445 34.0251
CA -20.2095 19.2974 36.7415
CA -36.0989 4.42679 54.3804
CA -4.61937 -21.4211 46.155
CA 16.8755 1.8263 68.7084
CA 0.222281 -10.9068 61.5603
CA 0.147571 4.61575 59.948
CA 15.604 19.0316 41.5118
CA -26.2558 8.18405 54.2421
CA 13.8934 20.0609 83.6788
CA 25.6034 -15.5405 52.1538
CA 18.6168 -2.64106 59.2604
CA 12.2704 9.19877 73.6257
CA 18.5129 -14.3124 46.1461
CA -0.787374 -22.5498 45.3903
CA -33.2018 19.2443 55.3873
CA -2.49636 -24.7384 88.9161
CA -2.20432 25.4055 50.7841
CA -1.14177 -20.2691 87.053
CA -9.15369 -14.2687 53.3576
CA 17.0733 11.259 76.3732
CA 10.8678 -0.605287 18.936
CA 24.5924 4.77337 68.8509
CA -31.3918 2.78044 76.4358
CA -33.1264 11.5033 45.5871
CA -1.23703 -6.1909 68.3725
CA -17.4426 -5.11985 33.874
CA -4.44135 -16.393 36.8668
CA -6.11586 5.15488 30.3918
CA -8.25048 -13.8557 93.0462
CA 4.17606 -3.84909 64.9799
CA 2.28176 -3.47784 26.6245
CA 15.7422 2.21184 65.2904
CA -28.8453 2.29042 59.9417
CA 1.18471 7.65832 62.3358
CA 3.86294 -14.2092 73.3718
CA 9.85654 -23.6924 78.888
CA 4.682 8.0959 48.9954
CA -25.0291 -3.85163 60.3291
CA 4.94163 -2.16714 62.2433
CA 20.7625 20.748 74.3215
CA 20.1052 -14.3426 54.6606
CA -13.0624 -13.1994 80.3817
CA 18.9344 4.83469 16.2163
CA 21.5006 7.40443 16.3242
CA -22.5779 14.6278 41.3517
CA -4.17563 -19.8378 51.3012
CA 5.32092 9.26413 51.1645
CA 21.2546 -14.6097 50.0642
CA 8.06152 9.28979 57.0297
CA -10.3301 -15.1071 60.5323
CA 15.9993 16.165 39.8168
CA 6.96983 13.2403 48.3081
CA -25.1427 13.7398 37.2752
CA -12.5515 -19.6022 60.9887
CA 10.1635 6.04715 77.426
CA -19.888 -8.13902 51.3836
CA 2.98651 -10.0628 90.5884
CA 17.9205 12.9482 61.2311
CA -29.4984 -0.53826 56.9236
CA 19.7514 18.0846 59.0068
CA 15.9734 -18.7394 46.8655
CA 20.286 -17.852 51.4935
CA -11.0833 -18.9728 58.9821
CA -19.4808 -4.87623 53.9855
CA -18.1491 0.00360101 51.9171
CA -2.75225 -25.4271 59.463
CA -15.8105 -18.9932 54.984
CA 5.05048 12.5917 61.2679
CA 20.5881 8.22873 63.0991
CA 12.9944 23.064 82.1463
CA 0.317546 -15.8186 70.6145
CA 17.7979 3.83295 62.1492
CA -24.8373 4.52287 47.8189
CA -24.1728 -7.55239 61.1124
CA -5.69243 -17.0013 52.3361
CA 11.133 12.5714 61.8491
CA -3.92972 -24.4948 48.6804
CA 13.0274 10.9676 74.4587
CA 6.18488 27.2248 59.3139
CA 4.62873 -10.9325 71.334
CA 2.17074 -20.5191 82.1984
CA -20.7089 20.8136 40.6259
CA 28.8391 -16.8595 53.7586
CA 17.5241 -16.258 48.1598
CA 19.4026 8.70162 64.3957
CA -27.6779 9.01976 66.0017
CA -3.73446 -8.02404 68.3055
CA 4.65178 -19.4269 37.4717
CA -22.1696 4.59362 35.835
CA -30.0376 -0.00516714 75.1237
CA -39.6237 -0.349536 56.6673
CA 2.14954 13.5943 63.0644
CA -9.22372 -17.2414 91.1675
CA -31.0029 5.92591 51.2598
CA 14.7913 1.70752 58.191
CA -11.9999 -22.5973 57.3783
CA -9.40056 0.524249 34.3301
CA 0.681361 -11.5906 56.1378
CA -14.7376 9.25364 38.6159
CA 12.5944 9.44684 59.3162
CA 9.8218 7.93267 58.6589
CA 8.12146 13.0947 63.8484
CA -15.0744 13.1146 35.4457
CA 21.6233 -16.8749 50.7198
CA -30.7379 10.4266 48.7282
CA -11.4457 -20.0222 71.7583
CA -0.83303 -1.27173 74.7164
CA -0.518243 -21.7122 84.6561
CA 18.7928 -4.8889 66.8703
CA 6.3249 -9.10731 91.9058
CA 11.3449 -19.3499 76.2809
CA 11.2808 -11.842 55.0367
CA -7.04023 -14.4024 74.5803
CA -2.63996 0.450805 61.7995
CA -6.70149 -9.96778 73.123
CA 13.7711 14.9428 57.0413
CA -18.038 -14.3335 75.8601
CA 16.4914 21.3194 75.2864
CA 11.1619 -22.5663 83.5383
CA -22.4139 10.6273 46.1771
CA 14.9979 -18.7392 52.8813
CA 18.4861 19.4831 74.7564
CA 6.26417 -12.4071 58.2484
CA 1.60079 -5.69183 15.2175
CA -14.7362 -18.8163 51.5967
CA 6.32972 -7.18827 54.0467
CA -3.29979 -8.98585 62.1885
CA -21.0838 22.2678 37.5142
CA 2.91489 -13.3527 54.6614
CA -21.3138 -6.37124 55.9883
CA 8.10369 -17.9551 76.3901
CA -10.5718 -24.2254 94.1703
CA 2.18773 -2.676 69.6124
CA -19.9754 -3.23536 55.6875
CA 18.8488 16.5237 68.9981
CA 14.5581 -12.6378 55.0618
CA -12.7878 -15.0493 78.6037
CA -29.4416 0.926283 77.3679
CA 25.2341 -6.58795 62.7552
CA 17.7275 -18.5369 52.9393
CA -12.9536 10.9146 35.4182
CA -4.32976 -28.6877 56.6466
CA 8.02055 -13.5854 71.5821
CA -10.7865 -19.7582 51.2116
CA 2.1278 -2.65827 16.7277
CA -1.19744 -7.72959 63.0109
CA -23.6564 -2.34495 54.9301
CA 3.5947 -11.985 18.7144
CA 10.4432 -31.4792 87.1158
CA 0.314944 -4.3568 64.0808
CA 15.8031 18.8515 56.6214
CA -6.74236 -12.6001 64.0917
CA 17.7441 18.1729 42.3071
CA 8.09748 6.3057 45.9454
CA -1.42926 -0.616676 26.7633
CA -26.3442 9.64712 76.5077
CA -11.1754 -25.4684 90.7292
CA 10.9862 -14.954 56.4546
CA -6.03778 8.19283 32.7335
CA 11.3361 9.97223 39.9478
CA 19.1284 15.5406 74.1373
CA 16.7443 -20.3647 52.5156
CA -7.48239 -1.61545 31.5399
CA 3.9232 -7.71355 62.1694
CA -32.6968 8.21166 43.786
CA 1.04871 30.3341 47.7058
CA 15.0096 -4.96862 67.4104
CA -11.7001 -22.3714 53.0595
CA -4.71627 -21.9319 55.9663
CA -27.1848 14.3497 35.8731
CA 4.69455 -10.6404 57.8505
CA -12.5199 -11.7077 84.7419
CA -19.9529 -1.36777 54.7879
CA 3.91804 -2.2448 60.5158
CA -19.538 21.3621 34.1079
CA -12.9613 0.547017 45.0935
CA -10.7189 -23.5576 54.238
CA 4.98061 -6.83074 82.2273
CA 14.1137 3.31585 63.5654
CA -8.24826 -15.5356 66.7352
CA -13.4564 -6.79357 79.7459
CA -0.460948 -27.079 60.3443
CA 6.13338 -14.5231 73.0325
CA -28.9482 7.46371 42.4116
CA 29.0092 0.45051 74.4607
CA -17.283 -2.86297 47.2403
CA 15.0781 1.20326 63.0022
CA 14.6313 -26.0946 82.2215
CA -9.47272 8.663 37.2052
CA -24.2471 13.4552 42.6599
CA -0.69821 -8.76698 54.4202
CA -37.0002 -4.37151 53.1377
CA 19.7978 17.5143 74.2
CA 15.0676 -0.140171 58.5337
CA -31.3429 14.7932 44.5902
CA -21.4659 14.7598 37.4861
CA -25.9455 7.34689 64.4859
CA 11.3015 -11.7931 71.106
CA 20.7749 14.069 61.2524
CA -9.4065 -24.7063 92.0004
CA 16.6835 -14.8433 76.5087
CA 4.29062 23.7572 49.0265
CA -9.90148 -18.1343 72.1219
CA 13.2664 -16.7045 54.8529
CA 16.2986 -20.3446 55.5226
CA 2.97046 14.9674 63.9519
CA -28.1473 14.1337 47.2529
CA -5.44563 -1.00483 32.7646
CA 8.25487 13.2319 55.5915
CA 9.69081 -18.5665 74.508
CA -35.7076 17.9895 46.4984
CA -25.092 13.2074 39.2279
CA -1.89889 -24.6446 57.9809
CA 9.66727 7.68667 38.8904
CA -15.8201 -8.40103 85.3988
CA 17.6587 24.542 58.0522
CA -15.1476 0.46078 48.2096
CA 9.10193 -6.83158 89.557
CA 28.5385 1.85614 70.0082
CA 5.03066 3.9541 55.353
CA -29.9628 5.64035 63.96
