489

CA -11.9618 -17.9146 91.6373
CA 16.9898 0.619446 67.8405
CA -16.3883 5.64618 41.7441
CA -31.3322 9.53349 69.532
CA 3.1913 -6.67297 63.8418
CA 16.5131 -11.3253 48.8527
CA 13.2201 -6.77407 87.4656
CA 13.1538 4.30846 59.7918
CA -19.6027 15.8565 44.1124
CA 14.8524 14.3843 79.3932
CA 2.27101 13.2978 65.4868
CA 24.0296 -0.934254 64.4845
CA 9.25945 -3.56082 91.0345
CA -15.4974 -14.648 79.0008
CA -31.0041 20.8912 53.7875
CA -15.5131 11.5291 48.7056
CA 6.37977 -13.891 76.4445
CA -6.64443 -8.32141 90.2171
CA 8.68737 11.3535 38.9637
CA 1.72257 -0.664094 51.7931
CA -26.3766 5.49928 73.5237
CA 6.72864 -1.75691 68.3499
CA -26.5496 9.96589 73.0006
CA -5.95269 -18.8816 94.7183
CA -14.5249 -14.7774 85.4618
CA 22.574 -19.2954 51.3181
CA -14.3705 -20.7972 76.0915
CA 8.54412 19.7835 74.764
CA -20.0013 2.66457 48.6667
CA -25.0086 10.3822 41.3043
CA -13.1655 -9.95783 81.0056
CA 8.03531 20.7931 78.0324
CA -25.6614 4.69884 65.0636
CA -27.7975 11.2008 75.7938
CA 28.5522 -4.90547 61.7822
CA 4.49944 -14.1264 70.8936
CA 12.7523 0.689441 75.541
CA -22.7264 8.3635 71.7689
CA 2.44481 4.36433 62.817
CA -23.8053 -20.3655 55.6438
CA -25.1618 -6.37243 55.6832
CA 4.91461 -23.2204 71.2674
CA -1.72908 -22.7965 51.782
CA 0.149219 -11.9986 47.4061
CA 21.9291 18.151 76.8436
CA 6.15671 5.92967 51.9615
CA -6.98549 -27.6942 57.021
CA -34.0451 14.1856 50.9042
CA 4.57532 -8.43229 73.2121
CA -2.35911 2.29338 39.9929
CA 3.64982 0.378577 58.7775
CA 11.5587 -20.2207 74.4908
CA 5.83781 -3.27225 60.2095
CA -28.4602 -4.81946 59.949
CA -23.9971 -4.02818 49.2006
CA -23.0606 3.9087 48.7254
CA 30.692 -0.0510117 67.4424
CA 0.600691 -10.7116 51.989
CA -27.6866 -1.1713 54.4
CA -30.4673 0.795074 68.4952
CA -18.0916 -0.46464 46.3265
CA -15.1237 -3.64405 87.5826
CA 11.622 -0.693005 66.9574
CA -5.02287 -15.4421 50.6621
CA -4.03352 -11.5623 68.6184
CA 7.05733 -7.04426 57.8931
CA -12.2988 -16.5014 75.7298
CA -29.1129 1.34265 65.9647
CA -10.2702 7.20391 34.9115
CA 15.1621 21.5529 77.8218
CA 13.3904 14.8216 73.9199
CA 6.2996 -24.4685 79.9624
CA 7.48142 5.38784 60.6851
CA 7.17744 -10.2205 19.144
CA -8.8745 -12.559 81.8624
CA -18.298 -5.52159 31.1604
CA 8.67957 -1.43095 63.5442
CA -34.3676 18.8077 48.7573
CA 26.7373 -3.00701 67.7699
CA -16.3385 -12.2428 75.6133
CA -7.26441 -14.4795 45.7321
CA 2.64121 -3.73652 14.2658
CA 4.85621 3.65239 54.4291
CA 0.636459 -5.13538 62.3426
CA 7.78218 6.69832 81.0732
CA -6.97309 -10.977 65.6601
CA -15.0868 -9.52987 89.2226
CA -3.57497 -25.3131 55.8707
CA 29.1186 -4.89319 64.8825
CA 30.0633 1.86247 73.3395
CA -25.4601 6.6151 41.757
CA 15.652 -5.96199 61.3274
CA -19.9121 11.4442 46.6715
CA 5.41498 -18.6273 75.8629
CA -12.7289 -29.5932 92.3389
CA 22.3486 -2.25525 59.7279
CA -17.2572 21.1424 38.7986
CA -37.4172 18.6211 52.7923
CA -13.4765 -22.2386 77.5934
CA -17.4847 8.87534 43.8286
CA -3.91917 -9.91541 89.8716
CA 8.48538 0.980825 74.131
CA -0.577245 -1.26775 59.1527
CA -14.5525 -18.0933 45.2687
CA 23.0427 18.6912 71.4616
CA -21.3576 -17.0565 54.0561
CA -6.00509 -8.9058 93.5105
CA -11.5405 -22.8808 81.669
CA 17.7324 -5.01895 57.1056
CA 19.438 -6.24741 61.9603
CA 5.39177 -22.4121 85.0721
CA 17.5945 17.0986 58.8992
CA -36.1993 -2.02118 57.1119
CA -27.2737 9.49666 65.1346
CA 12.4633 -1.82719 75.0863
CA -0.309381 -3.31258 63.3633
CA -6.90958 0.937396 63.9749
CA -14.9621 15.1746 39.3846
CA -5.57594 -25.4059 48.9096
CA -20.3969 -0.579926 46.6356
CA -32.7318 4.852 68.6406
CA 11.1082 -6.2348 53.1144
CA 2.1003 -0.496759 44.3967
CA -2.78498 -5.12801 68.5545
CA -36.1552 14.4686 50.5848
CA -22.6335 15.1195 42.0497
CA -0.538061 -1.31426 64.0151
CA 9.35054 5.24552 58.7135
CA -13.4936 -12.6871 82.2777
CA -10.3615 12.8482 37.2118
CA -19.4673 -17.7929 51.386
CA 10.1361 13.6575 53.5691
CA -21.8819 13.41 41.2571
CA 25.5405 19.6202 75.8503
CA -34.5204 11.0029 50.224
CA -9.53265 -16.3009 51.7183
CA -4.94629 -9.26327 86.2671
CA 1.6547 -0.916032 54.8895
CA 21.7076 -15.4354 44.3357
CA 10.7966 -21.0956 71.2238
CA -0.717112 -2.13285 33.5854
CA -3.57307 -14.1559 51.5913
CA 10.5172 -19.4559 71.9259
CA 17.9799 5.86827 65.3848
CA 17.6177 -7.28412 67.9402
CA -3.40493 15.7795 48.1159
CA -3.0825 -11.8652 49.7699
CA 8.75269 -15.4052 71.9876
CA 25.2549 11.4865 71.049
CA 7.43377 -1.25028 60.232
CA -21.1463 -14.9051 54.8769
CA -3.72955 -9.89762 57.7516
CA -3.98455 -7.73355 92.365
CA 4.88048 6.53831 59.8984
CA -22.1983 0.666485 49.3868
CA 2.23249 -3.92464 58.7467
CA 8.2565 10.5841 44.4693
CA 20.2034 -3.61268 61.7012
CA 7.38725 -31.0333 83.3385
CA -3.47842 -17.6457 55.0639
CA 13.42 -1.56944 57.6802
CA -15.7818 -11.0315 92.8191
CA 9.76478 -17.2263 72.4
CA 11.4365 1.48165 16.0504
CA 17.9722 22.5457 75.4046
CA 6.63732 0.269171 62.6559
CA -23.6877 16.0027 40.6257
CA 11.5791 4.58778 81.9198
CA 6.89735 16.9167 64.7299
CA 7.8657 -21.5693 72.1743
CA 5.47688 -18.9136 71.5183
CA 13.5071 9.00778 75.4932
CA -11.5433 -8.95361 25.8583
CA -24.518 8.18086 70.2833
CA 1.6028 7.5891 53.2677
CA 18.5203 10.771 65.6236
CA 8.60618 6.55828 73.5055
CA -14.3649 -24.782 92.462
CA 17.6583 -7.96119 57.6542
CA 7.64433 2.47982 61.1353
CA 0.117729 -10.7854 90.1844
CA 3.10162 6.66276 58.0416
CA 26.6513 -4.08055 63.2556
CA -6.34977 -11.6363 91.2791
CA 17.8849 20.3503 76.2486
CA -22.0727 -8.32575 52.9059
CA 14.3606 -2.61104 55.835
CA 14.8639 8.71687 68.2969
CA -20.1813 -17.815 49.228
CA -5.62826 -1.96562 53.9623
CA 10.9305 3.62153 66.8717
CA 4.81832 -14.7519 93.2383
CA -9.89081 -3.49231 79.5287
CA -7.07299 -19.2711 75.1606
CA -14.64 -7.45922 85.285
CA 27.9112 -0.830133 76.4216
CA 12.8023 21.3019 50.0816
CA 1.05861 1.79614 55.2698
CA -38.0031 -2.97872 56.3327
CA 12.499 0.312348 17.2291
CA -23.4917 11.5287 40.9904
CA -5.03362 -16.3385 69.8681
CA -2.61449 -10.9486 82.5952
CA -10.2537 -6.60372 29.634
CA 17.0082 -16.1538 54.9162
CA 4.15377 -3.73381 57.0542
CA 11.3999 -13.188 58.0914
CA -32.0493 7.26744 49.8142
CA 17.8611 11.5578 68.0378
CA 10.5546 -15.2563 78.6009
CA 12.6051 19.9972 54.8073
CA 11.0326 3.38015 60.4301
CA 5.90266 1.23158 59.4204
CA 6.66885 -9.54348 56.2969
CA 6.80868 1.60363 72.7404
CA 3.58519 -20.509 70.7122
CA -32.1666 -0.414186 53.687
CA -2.43308 -20.0982 53.2323
CA -29.2732 7.04446 76.0112
CA 3.35909 -6.99456 54.7437
CA 7.8799 -18.2072 76.8181
CA -22.229 7.70724 74.5668
CA 20.3376 1.54216 69.351
CA -7.88317 -7.41612 80.4478
CA 1.53921 -7.19701 68.5908
CA -16.1842 -15.1522 83.0285
CA 22.6477 4.07019 70.0321
CA 20.6527 -13.4364 56.3094
CA 29.1449 3.81381 70.9156
CA 7.37923 -27.386 76.4332
CA 12.4045 -18.9277 79.1003
CA -36.8647 16.8243 49.7759
CA -29.3581 19.0997 50.2816
CA 13.0898 -8.17511 60.0383
CA 5.29038 -13.8678 91.2739
CA 8.35083 4.37259 77.9688
CA -2.12834 -8.39227 90.0218
CA -5.34077 -14.2945 69.9464
CA 18.067 12.5036 79.0663
CA 19.1013 -22.9499 59.0034
CA -1.85828 -6.69162 64.4428
CA -11.7747 -16.5943 47.6055
CA -22.2539 -15.964 49.1273
CA 9.30859 18.8776 78.1514
CA 22.431 -0.923696 57.4778
CA 9.22869 4.36272 68.824
CA -3.60642 -18.1567 95.4491
CA 21.7654 17.5508 66.9328
CA -23.7441 -16.2278 55.8759
CA 10.5569 -3.05511 61.8223
CA -10.2002 -18.2627 53.1307
CA 16.9384 -3.48019 64.6682
CA -11.3148 -23.3775 92.3033
CA -20.7901 23.8921 39.3953
CA -31.2029 -2.5137 59.1853
CA -10.9202 3.81614 37.1799
CA 7.42242 -18.7858 73.1069
CA -5.75583 -9.43822 54.6331
CA -23.4156 0.0366295 53.5516
CA 29.6984 -1.40061 63.052
CA -32.0489 3.92612 63.7288
CA -15.8272 9.89655 49.6959
CA -23.1778 4.56631 76.5492
CA -6.45856 -6.56487 71.5529
CA -23.9172 14.2107 39.9001
CA -15.6743 -15.1062 75.3391
CA 0.224439 -8.84193 64.6405
CA 10.9163 23.5003 82.2203
CA -5.31885 0.287697 68.327
CA -29.1848 6.67034 72.4327
CA -30.5412 2.61449 44.873
CA -29.6415 11.9135 32.1543
CA 4.15069 -21.3721 77.8207
CA 0.147571 4.61575 59.948
CA -33.2092 15.3152 48.9324
CA 2.49911 1.87748 48.747
CA 7.08574 3.72579 55.1989
CA -0.13737 1.58444 63.1698
CA -26.9442 -10.2464 56.8203
CA 9.97187 -9.22153 51.0327
CA 2.99241 -2.41303 71.2275
CA 16.6376 23.719 79.7832
CA -0.0690764 15.2303 50.1875
CA -1.141 2.25321 55.9985
CA 1.49946 2.96457 58.6163
CA 7.07433 0.316118 55.9822
CA -26.7006 7.63356 60.3841
CA 17.0733 11.259 76.3732
CA -10.8261 -16.1484 74.4825
CA -10.3079 -26.0693 85.0174
CA -21.1948 -0.459381 44.3962
CA -26.1703 3.25928 71.405
CA 4.60368 5.37463 44.0037
CA -17.4426 -5.11985 33.874
CA -4.44135 -16.393 36.8668
CA -22.3558 -13.7084 72.9703
CA 21.7453 13.3288 71.3676
CA -8.19454 6.3691 35.9603
CA -29.3577 8.52332 45.4852
CA -25.9014 9.84299 45.1453
CA 9.14604 1.6043 61.9267
CA 1.18471 7.65832 62.3358
CA -26.5947 7.54623 79.6004
CA 9.85654 -23.6924 78.888
CA 31.7848 -4.68278 69.9184
CA 11.9415 7.15689 75.497
CA -18.4449 -14.5783 75.3987
CA -9.12866 4.69838 37.7973
CA 12.4122 13.0673 53.1711
CA -22.7755 25.6398 37.5198
CA -18.3909 6.09591 52.0397
CA 6.17976 -25.3469 71.6587
CA 2.62792 5.92886 53.0722
CA -0.823639 -8.42155 67.3168
CA 17.6583 2.57434 66.1511
CA 32.1792 -1.46294 75.4282
CA 8.45368 12.5442 45.2725
CA -27.801 21.9574 39.2719
CA 22.5074 -0.779124 62.1265
CA 10.2187 20.7349 76.9222
CA -10.9601 3.87088 32.3578
CA -0.286476 12.4057 51.6049
CA 17.878 -20.9398 58.3506
CA -21.6014 12.7502 33.8504
CA -33.6944 17.2476 50.2227
CA 17.9205 12.9482 61.2311
CA -14.2996 -16.7626 51.2803
CA 1.46518 3.12044 45.3699
CA 22.1187 -14.6988 46.8988
CA 20.286 -17.852 51.4935
CA -12.794 -18.5402 76.2998
CA 6.81418 -16.7545 72.0815
CA 14.2176 -26.3099 79.2413
CA 5.65291 3.06788 64.1629
CA -15.8105 -18.9932 54.984
CA 17.9773 -9.31297 56.3424
CA -17.628 -0.144078 44.1828
CA 6.8059 -15.4124 77.5573
CA 20.4 16.5777 75.6258
CA -8.29622 -19.8279 98.0502
CA 18.1175 -31.3759 79.0378
CA -22.5997 5.38255 40.8353
CA 19.1129 9.625 62.644
CA -33.1386 0.504544 60.4293
CA -14.2928 -10.5286 75.87
CA 13.0274 10.9676 74.4587
CA 6.38432 -30.5885 80.4179
CA 4.62873 -10.9325 71.334
CA -26.8897 2.94829 64.6928
CA 3.40758 15.4798 65.2778
CA -7.09372 -22.0731 37.1955
CA 0.141676 0.219481 66.5835
CA 19.4026 8.70162 64.3957
CA 5.51877 -17.1934 56.8074
CA 8.91242 -20.0975 76.9018
CA -19.4758 -12.3671 51.8467
CA -12.3228 -5.34682 31.6223
CA -0.2543 -9.66159 55.6395
CA -39.6237 -0.349536 56.6673
CA -2.44935 -1.07355 32.5368
CA 13.6368 0.918337 65.757
CA -4.24489 -17.6169 75.2367
CA 16.2702 -30.3702 77.8976
CA 13.081 11.4922 54.6303
CA -9.40056 0.524249 34.3301
CA 0.681361 -11.5906 56.1378
CA -27.6293 8.18742 76.8557
CA -34.3765 12.8004 49.7425
CA 9.8218 7.93267 58.6589
CA -9.39602 -13.7933 88.5911
CA -22.5507 11.3598 76.5478
CA 13.8267 10.453 81.5311
CA -30.7379 10.4266 48.7282
CA 11.76 -27.1812 86.2082
CA -3.48031 -12.7156 63.8003
CA -17.4036 -14.9837 77.4541
CA -13.5528 -7.73577 86.7281
CA 6.3249 -9.10731 91.9058
CA 11.3449 -19.3499 76.2809
CA 0.135627 -6.13597 65.2078
CA -29.8859 4.43356 46.6292
CA -10.0987 -15.1935 50.327
CA -1.87767 -11.793 58.2272
CA -5.17445 -12.9897 85.6369
CA -32.6674 0.234608 62.3271
CA 16.4914 21.3194 75.2864
CA -5.19447 -18.8194 76.5512
CA 0.739243 12.4737 62.5611
CA 4.94999 -4.48898 54.7463
CA 18.4861 19.4831 74.7564
CA -20.6009 -12.1158 87.4014
CA 27.4323 -15.5459 52.9798
CA 31.4645 -1.12851 77.1262
CA 16.0032 9.681 67.1643
CA 4.15633 4.29421 51.5513
CA 4.38174 -16.9614 66.1715
CA 2.98279 -9.14589 92.1612
CA 2.0511 5.60558 56.7584
CA -17.8229 -1.37676 87.182
CA -1.04945 -1.39455 37.0606
CA 10.191 6.42855 56.4737
CA -7.81282 -2.66536 61.416
CA -5.55396 -10.4427 83.2021
CA 3.26864 -15.4374 72.7992
CA -39.4199 16.1333 50.23
CA -14.5319 18.3862 42.2589
CA 5.98518 -29.1287 69.797
CA -24.9354 -13.1683 49.361
CA -12.9536 10.9146 35.4182
CA 11.2 12.0247 54.3415
CA 20.6023 -23.0492 78.0952
CA 10.7968 15.6066 56.4177
CA -25.127 10.2462 39.291
CA -1.19744 -7.72959 63.0109
CA 3.32696 1.72206 51.5861
CA 10.6046 6.88943 68.3692
CA 1.40121 18.2455 50.0585
CA -2.05428 -11.9451 55.8465
CA 15.8031 18.8515 56.6214
CA -2.43781 -13.0289 47.5756
CA 0.415923 -14.4617 40.9353
CA -24.4794 23.7322 41.1622
CA 18.5432 -23.1838 79.3617
CA -26.3442 9.64712 76.5077
CA -11.1754 -25.4684 90.7292
CA -18.6771 13.5679 35.5889
CA -15.6226 -0.260104 46.2611
CA -31.8782 17.8671 48.0604
CA 19.1284 15.5406 74.1373
CA 16.7443 -20.3647 52.5156
CA -16.3874 -15.7622 53.7314
CA -26.3852 9.74416 34.5045
CA 18.2548 15.4258 77.4412
CA -37.677 -1.03319 56.2172
CA 21.4352 -18.2883 45.8696
CA -18.048 -10.6869 84.9873
CA 10.494 -4.86074 57.6996
CA -27.1848 14.3497 35.8731
CA 12.2537 -0.244043 64.8777
CA -12.5199 -11.7077 84.7419
CA -19.9529 -1.36777 54.7879
CA 20.8933 -3.85802 54.5237
CA -3.88423 -15.8843 53.4627
CA 15.5044 20.2646 39.9552
CA 13.9948 1.98807 63.158
CA -28.6175 13.8116 34.1645
CA -26.5593 11.2171 64.7612
CA -9.40183 -20.3294 90.8755
CA 5.88647 -23.2381 74.9025
CA 5.51057 1.74507 76.4988
CA 6.13338 -14.5231 73.0325
CA 1.02267 6.14874 58.9134
CA 14.8586 14.3919 55.685
CA -17.283 -2.86297 47.2403
CA 11.4035 4.79379 69.9818
CA -23.3562 9.72503 75.0559
CA 30.8075 3.0679 72.1579
CA -7.91926 -3.56464 30.155
CA -0.315211 -1.47848 71.0629
CA 10.2027 -11.2776 55.1389
CA -14.6872 -18.9335 74.1535
CA -31.485 12.0267 49.5881
CA -6.17809 -18.1838 92.211
CA 16.5119 14.9436 76.8354
CA -27.7752 8.38795 66.5076
CA 21.8103 17.4901 73.9611
CA 20.7749 14.069 61.2524
CA -29.6744 6.79194 67.6429
CA 3.27411 8.79779 64.8636
CA -21.1953 -9.63917 51.0974
CA 0.381138 2.70198 39.0305
CA 8.28286 -23.3356 86.6361
CA 6.05177 8.46536 40.1915
CA 21.0025 -19.7324 47.5131
CA 7.10918 -14.7197 74.9587
CA -5.44563 -1.00483 32.7646
CA -21.0763 27.4663 39.9817
CA 9.69081 -18.5665 74.508
CA 6.143 0.981186 52.7177
CA 8.04804 -26.6631 86.1607
CA 4.48415 -16.3914 70.3576
CA 16.7429 -15.804 51.9156
CA -20.4057 0.273052 51.8288
CA 8.39728 -18.6703 69.2097
CA 3.00546 -12.8573 55.7189
CA 9.10193 -6.83158 89.557
CA -1.44715 -23.5739 49.2144
CA 32.6521 -3.44254 71.1122
CA 2.97575 6.16679 49.3472
