489

CA -17.2708 7.94265 80.4108
CA 17.1011 24.8495 73.0999
CA -30.6815 5.62923 73.0739
CA -10.2609 -8.37993 37.9453
CA 17.0871 26.7187 72.9094
CA -2.75546 -1.99354 56.8233
CA 6.65603 11.6797 53.5553
CA -5.49176 -7.44331 86.9717
CA 10.4146 -7.11948 66.1453
CA -18.7994 19.695 58.4487
CA 10.5099 7.3809 62.2647
CA 1.38063 -21.1911 89.8441
CA -21.4026 -4.78416 22.5522
CA -23.6324 10.6069 49.542
CA -18.2192 19.1876 32.1531
CA -7.52943 29.662 48.8349
CA 30.3514 0.272079 74.7732
CA -11.7877 -12.8728 38.4494
CA 20.3782 16.8249 26.0163
CA -34.3286 23.2076 49.7891
CA -22.0705 13.1541 40.5861
CA -20.2355 23.1815 53.1292
CA 11.4954 7.17604 75.9634
CA 30.8339 0.858009 71.743
CA 3.09488 -28.6751 59.0697
CA 15.0796 9.48511 42.2157
CA 5.26618 -8.08599 67.7121
CA -8.3884 7.49085 73.8717
CA 14.0088 -14.0833 74.3687
CA -10.6736 -29.7724 46.2803
CA 10.1842 19.5111 52.3053
CA 14.3154 8.71944 52.3835
CA 2.95164 -10.7649 49.0768
CA 2.36941 22.0216 35.4668
CA -12.5424 1.4686 41.1057
CA -15.208 -1.03736 37.0202
CA 31.8532 -8.15159 75.0403
CA -17.8037 -21.256 65.7139
CA 15.8271 2.30523 65.1309
CA 4.64386 17.415 77.4328
CA -11.0983 38.7282 59.984
CA -39.0408 1.27131 56.9883
CA 12.1006 16.4775 50.1996
CA 20.776 1.36589 51.5184
CA 9.99717 21.7058 66.894
CA -23.0427 9.04317 65.7006
CA -15.1252 -16.8703 35.994
CA -1.5009 -3.99729 20.4738
CA 18.1391 11.3571 39.8195
CA -20.7842 12.8119 60.5024
CA 8.8772 16.2994 48.2787
CA -16.9699 19.5558 43.0904
CA -0.824361 4.87652 46.6062
CA -1.68179 8.9777 75.7913
CA 19.8953 5.81211 68.4951
CA 16.4193 15.3126 48.5636
CA 2.70732 -18.1767 61.8472
CA 9.67074 18.0604 75.4758
CA 28.6153 1.3074 74.4584
CA -19.6357 -17.1964 70.4288
CA 34.4245 -5.62384 40.6273
CA -33.737 12.8588 47.2918
CA 6.48165 18.1985 52.7431
CA 9.77981 -22.2495 64.4447
CA -29.5942 12.2421 47.6466
CA -24.2771 -2.12335 48.6596
CA 13.3919 8.95522 60.6013
CA 18.6601 9.8905 50.9189
CA -0.885813 14.519 37.6671
CA 8.29681 7.56293 55.2963
CA 22.1177 -15.5101 49.7845
CA 7.03825 -21.8458 44.9938
CA -29.8336 9.31066 69.6102
CA 8.77124 14.4949 37.0191
CA 2.17443 -20.3876 55.5033
CA 7.34845 24.8339 72.1696
CA -19.7412 6.84715 68.7901
CA -3.88224 -2.5428 39.455
CA -23.5666 15.0542 62.907
CA 0.654214 12.1208 43.8466
CA -18.9987 17.575 26.5544
CA -0.543055 -15.2471 54.3677
CA -17.1532 -16.301 66.6485
CA -4.24044 27.3073 41.0906
CA -34.3028 13.2078 49.9748
CA -11.9966 23.1199 31.3817
CA -7.85421 -13.55 43.0392
CA 5.48494 -18.1862 62.2741
CA -25.0761 10.406 63.0884
CA -34.1714 17.4555 46.8495
CA -5.20914 20.9263 39.3323
CA -31.0796 8.8146 48.1493
CA 12.7563 25.3416 65.9491
CA 4.24136 24.2927 31.7896
CA 3.54372 -0.706998 52.8143
CA 22.4365 3.17431 69.2082
CA 2.13219 12.0754 63.2045
CA 19.6676 9.01461 73.9276
CA 8.69215 10.3778 62.9656
CA 18.5695 -31.1997 42.086
CA -11.4647 24.0289 28.5909
CA 14.1679 18.5354 81.1177
CA -3.36785 4.02141 43.4069
CA -32.9614 11.0419 50.9798
CA -20.5905 9.3507 57.7795
CA 18.3218 1.7083 61.4713
CA 31.1727 -9.67051 42.2606
CA -1.98379 13.21 42.329
CA -28.3121 7.70575 51.1814
CA 8.20055 17.319 73.1644
CA 3.95309 5.72592 84.5644
CA 9.64616 14.4709 65.1849
CA 16.5978 -1.87795 45.8569
CA 13.5761 14.2404 28.3276
CA -1.96023 18.0808 60.6877
CA -21.9363 10.5777 62.4918
CA 33.7295 1.24128 36.8052
CA 0.186781 14.5602 61.7011
CA 1.82669 10.2034 40.8863
CA 4.58124 -5.13353 48.3181
CA -13.6266 0.0193974 35.2258
CA 10.3918 -20.8132 43.1767
CA -30.238 -19.7054 33.3102
CA 4.78153 -5.26695 85.1954
CA -8.53494 7.3949 78.4923
CA 9.00441 -21.5556 46.4699
CA 17.2961 -14.6517 69.9513
CA -10.9924 -16.1257 45.7148
CA -4.6467 -17.0977 49.2804
CA -3.47504 -24.0243 86.067
CA -16.8598 3.72301 75.292
CA -4.11582 18.0148 50.4528
CA -0.803195 28.064 32.1957
CA 30.6038 -17.5314 45.1351
CA 1.08058 -18.6372 54.6219
CA -1.86434 6.67232 47.2105
CA -0.698576 24.0279 64.2547
CA -22.776 1.11011 47.6359
CA -1.80366 -8.01393 83.9009
CA -30.402 -1.71128 72.9445
CA -24.4361 1.05575 56.4935
CA -3.21643 16.8241 43.9783
CA -35.4011 12.5772 48.2676
CA 13.4384 -5.4241 84.4537
CA 22.7935 0.339593 72.8371
CA 13.3587 16.704 82.3742
CA -28.5116 5.79793 55.8021
CA 27.3844 -8.40446 75.2092
CA 3.43244 -1.35208 58.6849
CA -24.8003 8.11177 60.5266
CA -16.8465 22.8095 34.2068
CA 0.626376 6.65527 46.1615
CA 22.4344 3.62324 15.8837
CA -32.3485 -4.57955 73.5528
CA -34.4956 15.0029 47.1957
CA 3.45953 -1.89913 55.294
CA -14.9704 -17.5517 43.3852
CA -4.7488 -8.32749 89.3553
CA 28.9892 -0.690748 61.6262
CA -0.85426 -15.1656 49.7659
CA -3.23279 6.1835 60.0554
CA -2.03869 -5.04419 47.198
CA 11.0171 19.7156 48.7559
CA -32.5377 0.0904993 74.4349
CA -6.43551 -1.11603 40.305
CA 0.398554 20.1829 35.2637
CA 21.3731 7.56532 17.869
CA -4.05521 -8.6604 87.5839
CA -0.908081 -13.7966 56.9731
CA -26.7571 12.7688 45.318
CA -14.7933 -8.76042 42.1703
CA -3.41241 2.09988 43.1145
CA 7.38824 -20.3275 46.8946
CA -9.9261 26.8183 54.0391
CA 9.95018 8.86081 56.147
CA -13.2012 2.75564 11.962
CA -8.74829 -19.0627 39.2534
CA -5.56155 0.340899 56.7204
CA -6.99826 -5.48455 83.2253
CA -36.9062 8.83607 70.0788
CA -9.6112 9.65209 11.0692
CA 27.3536 -20.0069 38.9186
CA -4.14037 -18.3876 28.4167
CA -32.2348 -4.31269 51.3202
CA -31.286 13.9027 46.2469
CA 32.9369 3.3869 38.807
CA -2.47571 -9.23246 80.0738
CA -28.4081 0.0878295 69.1046
CA 27.2351 7.09493 73.0267
CA -2.02003 5.68941 40.7331
CA -0.166987 -18.386 57.8329
CA 14.4433 1.01501 28.5571
CA 23.7575 0.491131 74.5835
CA -19.4187 17.5555 38.0807
CA -16.5752 -19.1358 39.0124
CA 31.6823 -1.80096 33.6984
CA -6.91245 -5.37499 40.9682
CA -4.6565 9.60026 75.7064
CA 29.9991 6.32238 35.9574
CA -18.6821 13.5809 52.0749
CA 2.28332 5.6241 59.1599
CA -9.49169 -0.32415 43.5478
CA -18.5084 28.0519 36.555
CA 5.90884 18.1311 54.5173
CA 11.6859 4.88944 66.8675
CA 3.93494 -23.62 86.9706
CA -10.2702 5.33586 11.5957
CA -16.0207 3.91182 42.9566
CA -0.820935 -22.5386 55.5973
CA -0.213091 -24.4829 55.5979
CA -0.427034 10.2919 48.2858
CA -19.7811 19.0671 40.8841
CA -4.26799 -19.7499 84.5915
CA -28.7521 7.1173 81.794
CA -16.2326 28.2375 53.0417
CA 0.533728 -23.2032 85.2259
CA 28.2754 6.42986 58.6811
CA 9.18644 10.1172 78.3755
CA -14.2311 -29.562 64.0827
CA -34.1299 -6.0477 45.5289
CA -33.7054 -3.06979 74.2113
CA -11.6151 41.7235 62.4031
CA 9.45097 28.4882 33.4272
CA -23.1997 17.9208 46.6411
CA 4.26018 21.3622 35.5459
CA 3.15282 21.8405 37.8032
CA 1.63256 28.7001 32.1171
CA -20.1869 15.3939 61.7789
CA 6.9641 10.6968 76.8283
CA -13.9081 1.02024 42.3501
CA 7.16585 -7.3098 69.014
CA 6.44061 -24.8958 55.7788
CA -15.7117 31.7443 52.9908
CA 16.3871 -31.9451 45.664
CA 16.1479 -4.37298 49.0111
CA 6.26462 8.43557 87.1594
CA 0.477106 -0.0249233 54.8135
CA -0.938385 -11.0801 52.2828
CA 12.1573 8.99566 62.1926
CA -34.2701 3.33119 71.3088
CA -16.4795 18.7317 27.0562
CA 5.20879 -30.3276 58.9229
CA 14.402 12.7515 61.9322
CA -0.475613 29.9336 32.1304
CA -0.65972 -7.06274 80.6892
CA -20.2567 24.9603 37.1971
CA 22.767 4.91522 20.1541
CA 0.445683 -8.00806 87.5699
CA -14.4731 -10.2994 44.4387
CA 12.965 -1.18966 32.6459
CA 5.36706 -23.4425 34.7817
CA -6.89033 -3.42778 41.5189
CA -7.67096 20.2823 39.4839
CA -30.7012 14.6169 49.4244
CA -14.7859 26.7794 52.5229
CA -34.0137 11.0461 46.5182
CA -32.2113 12.0496 46.4364
CA -3.87408 8.31214 72.1147
CA 23.6214 7.54584 16.9083
CA -29.9514 10.5289 65.87
CA 6.94997 20.119 74.0126
CA 8.16867 -1.57684 54.8522
CA -15.5784 6.96662 42.0995
CA 19.6596 -0.0645304 72.9359
CA 18.5801 1.21329 47.2326
CA 13.6063 9.18521 36.6396
CA -12.729 7.97671 12.0813
CA -4.14483 19.498 43.0479
CA -4.22724 -10.4775 86.8019
CA 19.8783 0.993503 25.3348
CA -20.1327 -0.55218 43.8167
CA -35.632 12.9515 45.9061
CA -19.6482 21.1213 40.4622
CA 14.4647 21.9892 41.1045
CA -20.9844 -22.0936 66.7502
CA 8.57306 7.47487 80.1701
CA 11.0213 23.7578 68.1562
CA -11.0407 28.8307 51.11
CA -30.4853 20.8903 47.0876
CA 4.80221 14.7517 49.7386
CA -13.7441 8.99418 41.0448
CA 1.15636 21.0053 30.0977
CA -14.772 -0.0968232 39.6821
CA -3.90984 -18.3933 56.5894
CA -27.2716 15.5231 50.5154
CA -23.8153 17.1748 54.9206
CA 1.81082 -18.9941 52.6518
CA -0.0465612 13.2034 40.114
CA -12.4383 -2.11608 37.9181
CA -2.57978 27.5996 32.7445
CA 6.00426 14.1787 32.9587
CA -17.5433 16.8768 44.3338
CA -14.0207 4.34552 14.2751
CA 20.6814 -1.53569 39.8881
CA -11.9208 9.32708 37.9286
CA -8.3895 37.6849 60.1001
CA -5.80774 5.13565 48.4635
CA -18.1139 28.2185 52.6673
CA 9.01283 34.3074 68.6061
CA -17.2297 19.7418 30.1994
CA 20.7696 15.5167 48.7359
CA 31.4542 3.62601 57.0309
CA -12.4901 42.0549 64.7771
CA 20.8649 -5.93449 40.8909
CA 3.63839 0.0984463 49.5376
CA 12.5335 11.19 39.6741
CA -4.48487 -17.2741 44.554
CA 11.6983 13.6191 66.3998
CA -14.2013 -5.69367 82.8254
CA 1.45884 16.6072 54.6838
CA -21.6868 1.62529 48.9744
CA -17.4836 21.8387 39.4794
CA -20.3681 10.6177 47.5341
CA -3.04291 0.245134 43.6576
CA -1.88498 -19.6386 87.3466
CA -10.3103 -18.8477 37.8062
CA -28.8717 -19.1884 35.2489
CA 19.5798 -25.4097 46.1679
CA -22.823 11.3428 66.5961
CA -30.1272 5.21141 59.0375
CA 8.22295 20.84 48.8044
CA -10.4346 -3.54843 46.4245
CA -35.1148 19.7034 52.2658
CA -0.403044 -21.0801 84.2834
CA 19.2512 -26.4208 44.4861
CA 11.9598 -1.08256 28.65
CA -3.47499 -9.87379 64.4708
CA 18.7657 -15.3997 66.6752
CA -25.5166 10.9271 59.2356
CA 8.17612 -24.0084 60.5353
CA 18.5303 16.2582 52.2338
CA -0.780242 38.1534 64.368
CA 6.3412 19.7177 71.2116
CA -0.686826 -29.257 61.4199
CA 14.3144 18.6557 49.1784
CA -6.62275 11.8857 48.0071
CA -24.4193 15.395 57.8698
CA -20.4076 23.2145 36.727
CA 11.5765 18.3406 77.2014
CA -9.78968 1.87984 10.8476
CA -24.6423 -2.34161 54.5559
CA -8.57413 -33.1837 44.4767
CA 10.9558 7.91299 57.6978
CA -27.2867 6.83001 47.8752
CA -12.5507 5.88622 15.1089
CA -15.5451 17.526 40.2712
CA 6.41022 -29.9126 60.7694
CA -21.3916 12.6719 52.0965
CA 19.2805 -0.423695 24.2851
CA -6.77431 -0.424305 21.402
CA 26.3215 -8.5637 40.7518
CA 24.7141 -25.9878 65.5028
CA 18.3079 -11.5301 73.3969
CA 12.1164 25.7677 67.9425
CA 11.5757 -32.0398 45.7317
CA -16.1418 -21.6587 64.2342
CA 0.111713 9.85064 60.8425
CA 14.1397 28.7963 69.3314
CA -25.9553 9.55935 79.8342
CA -14.7228 19.5849 33.6101
CA -33.3979 7.13998 71.9303
CA 27.0459 1.34125 62.2729
CA -1.22331 21.0132 42.2261
CA 9.55103 13.8036 50.577
CA 9.20699 27.3788 34.9262
CA 2.00518 12.0829 45.8532
CA 7.09045 -9.24341 69.447
CA 3.52997 -31.3794 57.0265
CA -35.5979 11.262 71.9582
CA 13.7885 4.27644 32.3562
CA -7.25968 -17.1946 85.7363
CA -1.71776 -7.12763 86.1281
CA 3.88785 -25.0968 84.3302
CA -31.6408 7.07954 48.6516
CA -8.60458 -3.93947 38.9229
CA -8.6804 -25.0739 39.3619
CA 6.96549 -5.68018 84.6562
CA 41.0938 7.60403 53.5066
CA -0.403958 18.9068 40.6074
CA -8.7551 -8.49821 89.2525
CA -9.93159 24.5303 35.0665
CA 12.0403 25.3473 71.935
CA 10.7266 18.6687 73.2994
CA -24.4928 -2.7068 68.2418
CA -12.8481 20.8114 31.3501
CA 8.65238 -5.20877 81.5395
CA -9.54141 -0.983296 36.1193
CA 10.9936 25.5409 36.6564
CA -3.33308 29.1434 29.3653
CA -27.4609 6.9799 72.8797
CA 36.4833 -0.994676 45.24
CA -7.36604 5.09521 8.24962
CA -16.9395 7.62314 82.9067
CA -19.6526 36.576 47.7508
CA -9.41206 32.9306 51.0902
CA 0.111864 -23.9118 25.7229
CA -6.99679 22.2104 38.2741
CA 6.29175 -2.48741 56.3549
CA -31.739 -9.15709 50.4891
CA -17.8846 -26.8763 26.8202
CA -8.77712 6.8664 16.5113
CA -11.8838 -9.5035 37.7322
CA 1.42926 6.76464 43.1364
CA -34.4248 6.51799 70.2642
CA 1.82863 -10.8596 69.9469
CA -5.52832 -8.29602 67.0204
CA -1.42459 19.2169 44.0406
CA -27.8325 10.381 50.3689
CA -7.11041 28.311 31.0807
CA 19.722 -27.6839 38.533
CA -25.0573 13.5681 61.8759
CA 1.35975 -28.6219 58.5217
CA -37.5255 14.64 49.918
CA 29.6879 -9.64061 73.2195
CA 8.17539 -24.389 34.5282
CA 32.9527 -9.29044 41.3642
CA -17.9562 -21.9609 19.7337
CA 4.36982 -30.1133 33.546
CA -5.12483 21.1593 41.6618
CA 13.6684 8.24142 56.7576
CA -6.16658 -14.7667 86.9981
CA -2.59635 15.0575 46.428
CA -17.4839 -18.7577 67.3007
CA -37.0183 23.1972 51.7562
CA -12.7316 7.58156 38.7194
CA 1.26855 -1.34479 45.8124
CA 18.2505 2.17547 67.8236
CA -19.9121 10.2314 71.8405
CA -12.097 7.31663 7.24807
CA -0.280008 -20.6264 54.6776
CA 25.1474 -29.9689 40.6622
CA 13.9288 12.3051 64.4884
CA 15.2848 24.8996 68.7994
CA 9.49329 15.0371 56.6322
CA 10.7956 -4.67721 86.0786
CA 18.2222 -13.6676 68.4198
CA -3.62822 23.1795 38.457
CA -32.4415 -2.68128 77.5767
CA 3.56969 -30.013 30.3917
CA 0.271576 -1.56394 52.2112
CA 8.64234 -31.2998 59.7055
CA -37.5774 13.203 45.8183
CA -22.4046 -21.1464 19.5031
CA -24.1533 15.856 44.13
CA -35.6717 11.7064 43.3611
CA -1.12446 15.8654 40.4136
CA -7.08819 5.45039 40.2062
CA 5.63784 5.61026 83.7486
CA 7.02856 -9.86198 66.2679
CA -29.3139 11.3765 56.3197
CA -29.9649 7.02703 75.4755
CA 7.1348 14.0324 78.9352
CA 3.52602 -24.9491 31.9765
CA 28.2435 4.63156 73.633
CA -21.6801 11.1736 48.7495
CA 11.0655 7.37158 55.4504
CA -15.5945 -13.9652 39.3115
CA -2.00575 -27.1787 52.891
CA -10.9066 -4.22316 38.7667
CA 6.82082 18.2533 75.3897
CA -0.456997 -0.0523513 47.4114
CA -19.2847 -28.3089 30.6974
CA -33.5906 -5.4039 47.295
CA -17.4164 -1.20587 33.6652
CA -0.528457 3.17071 88.6274
CA 17.4932 5.77113 74.0517
CA -1.08373 -28.5422 58.338
CA 13.7922 20.1783 47.4184
CA 1.81663 15.9884 35.1016
CA -3.61728 12.0654 75.6488
CA -26.9822 9.00536 45.4249
CA 0.106341 -4.56945 45.7755
CA -8.53383 18.3286 61.2299
CA -26.9467 9.30597 53.4487
CA -21.482 -16.7173 72.6055
CA 9.44234 -25.27 44.1042
CA -17.1299 25.6109 31.7369
CA -4.25895 -9.02731 81.5884
CA -17.3526 39.3355 49.7172
CA 9.88009 -25.3561 50.6896
CA 6.25348 -29.5767 64.9402
CA 0.537683 -23.9094 89.3002
CA -21.5271 19.7003 42.2533
CA 12.3436 13.3167 53.3885
CA 22.1894 5.16262 72.4495
CA 20.9296 -30.0655 41.5344
CA -20.9154 -24.4574 17.4683
CA 11.1572 -0.775139 62.2373
CA -14.0976 16.2294 32.9221
