489

CA 6.49397 -19.1634 78.1814
CA 6.91168 -18.855 71.5038
CA -10.4103 3.42174 39.6206
CA -1.72655 -5.84172 98.2985
CA -30.8318 -8.84838 49.5661
CA 9.99542 -16.911 85.8439
CA 8.50835 -3.75915 53.4334
CA 12.6302 -5.12724 16.3058
CA 1.82049 0.814055 56.0658
CA 3.57463 -17.4515 68.986
CA -12.4761 18.8063 38.3691
CA -27.8376 -7.07265 55.9198
CA -34.814 13.258 50.6446
CA -0.218475 -10.0432 61.4453
CA 15.2881 -15.9666 18.9776
CA -28.0526 27.6552 38.8883
CA -33.1833 -6.4197 60.6652
CA -24.5235 -2.68318 63.1553
CA -5.97837 7.5402 32.8768
CA 19.2552 8.16804 71.4025
CA 8.84663 4.2222 50.4714
CA 0.248989 -18.8144 85.1838
CA 22.0908 -9.39624 62.4329
CA -37.648 -12.7047 55.288
CA 8.27244 -11.3338 16.6392
CA 1.19652 12.7575 75.2205
CA 5.15084 -10.1328 82.7462
CA -32.5588 -0.672032 51.6363
CA -13.2769 -1.29332 80.636
CA -37.0721 14.2653 54.6058
CA 18.6018 -6.90866 69.5556
CA 24.0559 -0.15937 62.8241
CA -20.1548 -12.5426 68.5621
CA -17.2761 -13.7662 66.1496
CA -35.3802 19.7684 50.4519
CA -10.8358 -10.1103 77.9533
CA -22.1669 14.5418 44.1877
CA 16.3702 -4.81057 57.9894
CA -10.2162 -3.72287 78.7852
CA 4.39261 -14.4474 95.7741
CA -8.81125 15.202 41.2382
CA -35.0121 3.00397 54.4845
CA -10.2012 18.6432 38.287
CA -24.2282 -10.6855 84.0639
CA -30.9235 20.5202 45.9254
CA 12.1387 -21.3689 80.4926
CA 7.76695 24.6681 72.1879
CA 17.3636 -9.92825 17.0204
CA -8.00128 1.73625 58.1238
CA -6.10014 -3.25922 61.3206
CA 2.53451 -13.1933 93.3988
CA -20.8537 0.709448 45.3184
CA 19.6395 -12.4677 59.7163
CA -15.3974 -11.3704 70.0918
CA -25.4068 -2.88834 49.1534
CA -14.1999 2.18926 64.797
CA -17.4618 7.21826 41.5314
CA -18.8075 -14.0942 68.9372
CA 15.6872 -7.19007 53.9021
CA 18.8081 0.35412 62.1447
CA -33.6182 -8.88428 61.0613
CA 23.647 11.7212 80.4519
CA -19.1023 -10.5987 81.3196
CA 4.18302 -12.7555 91.3476
CA -11.5946 18.0285 46.6165
CA -27.8728 -5.14928 55.2463
CA -9.32213 -6.02308 85.1442
CA -23.924 9.70751 65.6477
CA -7.99542 -4.13569 64.4739
CA 12.9603 -17.4489 19.5155
CA -3.12841 -5.64035 28.1435
CA 13.9336 -4.95132 57.7665
CA -2.67976 6.44799 66.3839
CA 12.3105 -12.4155 16.5444
CA -12.8396 14.2469 48.1383
CA 7.94025 4.61904 57.7678
CA -11.0321 16.8785 39.329
CA -18.2282 -17.8778 77.1296
CA 10.0417 -21.9863 84.7401
CA -18.2183 -0.465856 64.826
CA -34.0648 17.2147 53.5558
CA -12.0922 -10.1846 76.4897
CA 15.4835 16.8993 84.0169
CA -30.3268 19.7716 50.589
CA -6.23553 -12.4191 72.7211
CA 1.5494 3.65627 79.7328
CA 0.219216 -2.63215 66.2449
CA -21.3738 3.61371 78.1835
CA -27.4145 -3.9822 46.7364
CA -34.9501 -7.8385 58.9141
CA 8.56112 -6.83383 54.0831
CA -39.5342 19.3787 52.4022
CA 11.4283 -23.1757 84.0074
CA 9.97414 2.89782 55.9026
CA 8.4026 -20.3547 84.3313
CA -3.8804 2.03376 64.4522
CA 10.0495 -9.66594 68.753
CA 19.3252 0.975906 55.7864
CA 13.5515 -7.87616 82.17
CA -33.0811 -5.46968 59.0682
CA 11.5657 16.572 81.6128
CA -4.97007 2.11988 34.0781
CA -30.5682 -4.60684 65.6243
CA -8.4856 0.928972 60.23
CA -4.9766 1.42237 60.3734
CA -15.7784 13.229 50.09
CA -31.5914 -9.43 47.0122
CA -24.7509 -4.11472 47.386
CA -10.7622 -1.41388 79.6297
CA -27.4695 -9.53786 49.3804
CA -26.4234 22.734 43.1567
CA -25.752 -13.4872 52.8357
CA 17.0467 1.7364 64.1563
CA -24.2222 -5.95271 81.869
CA 14.1453 -25.2922 82.9088
CA 11.0227 -13.156 84.0908
CA 19.1613 -2.37926 55.394
CA 20.4262 -1.65582 52.4861
CA -8.71982 -15.6315 70.054
CA -10.232 -13.538 48.3336
CA -31.5015 -13.8387 54.1038
CA -33.6048 -4.09638 68.293
CA -28.2347 3.30849 66.4228
CA -12.9975 -10.6905 66.5298
CA -22.9221 -16.8719 46.716
CA -17.6578 -3.3957 49.2111
CA -14.0979 -18.0315 62.4779
CA -24.0175 -7.12069 48.4735
CA -10.8682 14.9392 45.3756
CA 1.31541 6.62078 82.635
CA -7.35508 -14.0604 70.8185
CA -5.504 2.69803 67.0262
CA 15.9492 1.64581 76.9923
CA -24.4492 1.34298 68.1795
CA -25.0883 10.6083 63.3429
CA 28.2969 -32.1796 82.2529
CA -15.4124 1.70582 79.0007
CA -9.56933 -10.6465 67.6064
CA -34.6012 -12.9367 53.3887
CA 22.2259 17.6023 70.2507
CA -35.2854 2.15754 57.01
CA 23.4089 -13.0586 62.7218
CA -0.127982 -8.11955 47.8681
CA -0.661805 -9.81971 90.0388
CA 6.104 3.17342 55.225
CA -22.2411 8.67536 50.8106
CA -11.8365 8.72023 37.075
CA 16.1106 -4.20966 53.2948
CA -21.2917 1.20478 74.3797
CA -34.9015 -16.3334 52.6344
CA -7.94539 -0.181619 30.1521
CA -34.6776 -4.40772 50.1909
CA 2.22058 16.061 70.7768
CA -11.636 -7.71089 79.7103
CA 4.5665 12.0642 79.9479
CA 2.81324 -2.6358 60.8857
CA 12.1885 -7.04937 14.3759
CA 0.757099 -2.60668 45.2871
CA 16.5007 1.29023 61.7818
CA -28.5846 -17.442 47.7672
CA 19.4971 -29.0046 80.9172
CA -9.12785 -5.70582 67.6832
CA -5.63125 -9.94573 60.082
CA 10.8935 8.68112 58.3267
CA -5.86425 1.19718 64.6806
CA -20.4554 -13.1062 53.9153
CA -22.9867 -18.8343 49.6806
CA 12.6931 3.98598 63.1265
CA 12.4253 -6.29657 60.0265
CA -12.7498 14.185 36.8195
CA 22.3666 -27.7495 79.5008
CA -24.3168 5.76321 66.2689
CA 17.9957 2.15022 59.8287
CA 0.368084 -21.1721 86.2846
CA -25.879 -14.1583 69.8317
CA 11.4964 -13.0795 93.0582
CA -2.44682 -3.39196 30.5749
CA -40.2604 15.007 53.4724
CA -2.78622 -10.2129 28.6823
CA -24.8656 -5.77427 56.0948
CA 4.62324 5.23014 79.3661
CA 2.7388 3.25247 77.0836
CA -11.7823 -18.5714 69.2096
CA 28.0194 14.8763 73.5824
CA 19.3479 -12.6457 62.6403
CA -22.8386 2.11674 75.261
CA 4.38131 -17.6609 81.7385
CA -2.02205 4.85657 68.0371
CA -28.7623 20.1277 53.1265
CA -10.0734 3.95934 36.814
CA -23.9608 -0.359393 65.3888
CA 6.74546 -15.6365 64.6772
CA -19.9193 4.08261 71.8713
CA -22.6901 4.99827 48.6484
CA -17.3549 2.22787 43.7631
CA -8.01294 0.857991 73.2293
CA 20.6362 8.53393 55.3823
CA -37.0222 -22.9144 53.213
CA -32.9576 -17.8555 54.4084
CA 20.9017 -7.43025 63.4103
CA -8.53045 3.34776 59.2516
CA 12.4122 -11.4151 62.7891
CA -17.3129 -10.1106 68.8771
CA -34.1094 -15.0454 51.5151
CA -16.168 -1.45772 63.693
CA 15.6013 -16.9335 16.5406
CA 20.7665 5.24004 57.7878
CA -23.7992 -23.1898 47.7426
CA 17.1832 -7.3491 64.4064
CA -22.8889 -3.66802 60.8828
CA 2.98591 -10.6794 87.0493
CA 2.15239 14.9606 75.8526
CA -19.1798 8.2938 66.7936
CA 17.1557 -0.71992 53.8881
CA 18.5723 -8.08775 67.4545
CA -20.0247 -0.491569 47.1336
CA -27.3479 26.8501 40.9236
CA 7.00815 -20.8506 55.7345
CA -24.9856 -9.49096 70.9054
CA -33.1705 -5.40893 53.7326
CA -2.87881 2.19785 28.0181
CA -8.38986 -0.489847 66.1307
CA -26.9769 -15.746 50.787
CA -16.021 -0.0388226 79.7342
CA 29.3101 12.6625 73.8628
CA 11.1239 -18.1118 89.1419
CA -25.3707 7.71593 69.0927
CA 6.42551 -19.2053 93.0218
CA -11.562 -4.98925 65.9644
CA 10.5229 -8.15342 52.7092
CA 20.5386 10.9307 80.6029
CA -5.12886 0.80028 75.8525
CA -21.0739 6.96655 65.5007
CA 29.6237 18.3394 70.7173
CA -33.3207 -10.4535 59.7517
CA 10.9202 20.5182 70.303
CA -35.3699 25.4146 42.9788
CA 18.5462 -4.40048 58.8291
CA 5.31806 -12.9332 93.5705
CA 15.6116 13.9113 74.8733
CA 16.6106 -6.38429 69.7899
CA -0.615082 -6.76063 66.4036
CA -29.9177 -2.67635 51.1847
CA -5.90964 -11.2116 77.9909
CA 10.1801 -25.2373 82.2412
CA -4.64162 -16.6394 53.985
CA 4.84834 -5.84166 51.2887
CA -21.0591 -10.8334 66.0269
CA -1.74524 5.562 74.8606
CA -20.1295 13.9079 47.2504
CA -15.6241 0.877687 40.4191
CA -4.97886 -19.8851 53.4949
CA -22.8822 -9.48623 72.5639
CA -22.8761 -15.5891 71.5625
CA 25.6238 4.9865 67.6268
CA -10.2658 -4.51511 88.0033
CA -21.4746 -0.462499 48.7739
CA 12.8522 -10.4643 86.5118
CA -9.18768 18.3826 43.6794
CA 13.6031 -11.6979 89.2859
CA -26.8194 -7.6348 69.4047
CA -24.66 -8.57276 75.0209
CA -33.4431 -9.50372 57.5439
CA 9.16868 4.29284 84.4447
CA 26.5086 3.74056 63.141
CA -21.775 11.3918 45.3719
CA -24.9221 -18.3317 46.822
CA 0.0127697 -5.15502 46.198
CA 19.8628 11.2014 73.0756
CA -21.0224 -10.1954 69.4484
CA -0.303128 -3.0912 71.8714
CA -7.89046 -5.06248 86.7551
CA -24.0134 -13.4141 87.6745
CA -10.4473 0.124537 66.5632
CA -2.05419 6.56175 72.6535
CA 0.553278 9.23156 74.2158
CA 9.33175 -24.6081 74.7987
CA 23.878 -14.7667 61.0221
CA -27.1895 -10.7601 52.3324
CA 15.6436 14.5385 78.2753
CA -9.33119 8.71993 31.623
CA -0.346642 3.22724 54.7165
CA -5.48013 8.45947 36.1678
CA 33.2383 11.736 77.1594
CA -5.72553 1.15003 82.8027
CA -8.21623 -4.37567 85.082
CA -24.2858 14.1436 51.6087
CA -20.534 -17.069 66.4929
CA -8.08917 -17.7854 68.3015
CA 6.35113 4.61663 47.6314
CA -1.04812 -2.22274 46.964
CA 3.28519 12.5671 76.6031
CA -6.43994 -5.17859 29.8996
CA 4.68741 -5.32102 60.777
CA 9.87568 -7.90039 67.6347
CA -18.6988 1.39858 64.7102
CA -30.2052 -19.9572 56.8091
CA 19.8469 -10.7842 52.3942
CA -20.2163 4.77056 51.2927
CA -34.2866 -22.0316 54.9235
CA 20.9527 6.61664 71.6391
CA -34.8039 21.2191 44.6622
CA -31.8879 -9.94395 53.4149
CA -36.2534 22.1812 46.1756
CA 15.2947 -24.3626 80.8025
CA -7.04713 -6.54347 67.1435
CA -29.9166 21.6526 51.4178
CA -29.2194 -7.4842 51.3567
CA 3.49177 -14.791 81.9161
CA 1.96332 -12.0472 98.4497
CA -3.46389 -4.21837 33.3716
CA -28.9529 -16.0995 50.263
CA 16.4608 11.2297 77.8462
CA -1.78853 3.0994 76.8121
CA -9.10579 -12.8344 69.9081
CA -7.23393 2.11767 54.0153
CA 0.105003 10.126 35.6392
CA 0.82694 13.4209 35.2884
CA -2.82972 -8.58421 94.1618
CA 14.6905 -10.8478 13.454
CA 17.5914 0.942601 54.6595
CA -9.68966 -4.50648 62.4012
CA 12.5448 -15.1832 60.2947
CA 13.9665 -4.25671 61.6991
CA -12.1791 -1.52673 77.2273
CA 19.9149 -9.10798 50.9221
CA -22.9481 -16.4243 49.8694
CA 19.9801 -6.98354 53.5914
CA -23.2659 12.3379 48.3636
CA -25.1574 0.390014 71.9527
CA 7.71748 -15.1404 87.0915
CA -28.4506 15.0651 53.133
CA 19.2617 -27.0086 80.1649
CA 6.31783 5.80435 82.8973
CA 6.12601 -15.9482 84.1074
CA -23.647 -1.37142 55.217
CA -7.20117 -14.165 73.9651
CA -31.9473 6.08884 52.8928
CA -24.9696 -1.74126 56.515
CA -10.1764 7.56103 38.7975
CA 10.7371 -9.13691 83.7998
CA -27.7278 -12.1341 82.9311
CA -5.78533 -18.4141 64.1852
CA 15.1288 20.9743 73.8836
CA 5.39776 12.5207 78.111
CA -36.7808 -16.1494 54.7161
CA -28.6153 4.62926 65.2411
CA -26.3639 -7.94802 81.2483
CA 0.620044 -1.0011 48.9715
CA 16.0985 -8.47527 68.5733
CA 3.64447 -10.8054 90.7543
CA -14.9174 -14.2416 76.4994
CA 0.918545 -11.6158 68.4862
CA 13.8753 16.1999 71.3939
CA -29.2422 24.6859 47.8435
CA 9.36222 -14.8089 64.043
CA 2.42356 -11.6277 89.1503
CA -11.2351 17.3363 44.6057
CA 9.35919 -20.0133 89.8015
CA -33.4291 -4.54584 48.4515
CA 7.58108 -13.3093 70.5218
CA 4.2794 10.0657 71.9705
CA -35.039 24.3187 44.371
CA -21.3286 1.8952 48.0592
CA 16.0624 -23.8763 73.2912
CA 28.9158 14.2958 77.1536
CA -29.042 -4.59905 49.7778
CA -2.61458 8.76034 35.973
CA 1.444 0.979236 72.1873
CA -31.3722 -5.52664 52.3883
CA 25.3593 17.105 75.539
CA 5.13885 -11.2807 50.1039
CA -23.2144 -8.46212 79.8051
CA 23.7652 6.57141 65.3559
CA -11.4373 -3.80928 82.5938
CA 2.91646 -8.2629 49.3884
CA 3.45348 -14.619 84.6064
CA -35.7875 -2.18746 48.7749
CA -23.4249 -10.3219 54.5587
CA -0.718479 16.306 70.2363
CA -20.5028 12.6449 52.5162
CA 3.36805 1.22661 45.4203
CA 15.4784 10.9203 80.2312
CA -6.4541 18.2806 37.9274
CA -13.8272 -1.86497 78.5956
CA -8.82068 -2.31928 61.7852
CA -2.34421 -21.3946 64.5111
CA -35.6889 15.8788 52.4564
CA 15.367 -12.6291 87.0155
CA -15.7111 -12.1213 67.371
CA 7.39158 14.0771 80.778
CA -12.1568 11.9545 45.8878
CA 13.9465 -22.5873 73.5439
CA 10.5927 -16.4029 74.8879
CA 4.15633 4.29421 51.5513
CA 13.0559 -6.66196 54.0168
CA -28.8684 -14.2977 50.5669
CA 3.3846 -5.72364 56.8955
CA 0.37926 0.647332 75.0015
CA -11.6848 5.87812 34.0542
CA -21.9836 16.6518 44.8371
CA -5.87405 1.41898 70.3224
CA 7.66574 -20.0375 74.6687
CA 1.03455 -7.67441 64.866
CA -20.9502 8.01819 48.6055
CA -8.15454 -2.54989 83.0379
CA 0.135959 -0.213353 31.067
CA -10.6004 -3.9813 85.7623
CA -40.146 11.7141 46.4679
CA -26.5114 -9.76113 82.083
CA -25.1319 2.20299 71.4383
CA -15.6889 0.189759 52.8494
CA 4.43578 -9.13266 72.4152
CA -23.1956 -12.408 55.0106
CA 2.77289 -9.43351 42.8374
CA -10.0745 -1.91535 77.6688
CA 22.5571 15.8377 80.0739
CA 5.28063 -18.1327 88.728
CA -20.401 1.86245 66.7786
CA -8.80903 -0.0273789 61.813
CA 6.49924 -8.34781 68.2641
CA 3.29013 -6.91403 46.0324
CA -13.4444 -4.56359 88.834
CA -0.738491 -13.2256 51.704
CA -25.9717 -3.17747 65.4136
CA -16.0922 -15.8313 65.4703
CA -5.83639 -18.5496 67.6969
CA 15.6115 22.9561 69.5716
CA 3.87004 13.4417 74.3295
CA 28.9813 15.4819 71.7853
CA 8.48131 -20.2066 79.9006
CA -13.4928 16.9874 44.3045
CA -23.2572 15.9595 46.0709
CA -1.70958 -8.71562 48.6991
CA -9.12584 -11.8736 74.5918
CA 15.0566 -0.124537 62.3997
CA 14.3556 -7.48259 67.5894
CA -13.3201 12.2795 47.5336
CA 18.4089 13.1966 81.0087
CA 1.30537 -2.74624 63.3198
CA -3.81189 -15.3207 52.783
CA 18.9159 1.68985 78.848
CA -17.6873 -12.3404 67.2896
CA -22.4974 0.99053 70.2177
CA 4.73551 -1.63367 57.5127
CA 4.80528 4.61579 55.4003
CA -8.52193 -15.6108 68.0862
CA -21.9959 -26.4533 47.1214
CA -29.0507 -7.52556 65.0012
CA 15.0224 2.9303 59.1883
CA -27.6837 4.00245 69.6109
CA -15.732 -8.75851 66.5103
CA 7.32687 -13.929 19.349
CA -30.203 -9.46455 70.0854
CA -10.2419 6.47285 37.3191
CA 14.1565 -8.62505 83.7625
CA 9.37103 -12.2344 84.9326
CA -0.637945 -18.4896 66.7216
CA -30.0419 -0.884788 46.3873
CA -25.9385 -7.81878 72.5327
CA -39.262 -19.17 51.1581
CA -6.20866 -7.43704 65.7116
CA 9.44691 5.42921 49.1736
CA 7.78473 -12.0361 87.4268
CA 14.8565 -10.4601 69.4038
CA -19.8944 11.9765 50.2102
CA 21.8654 11.0681 78.7898
CA 3.94078 1.80742 74.4248
CA 1.42827 -18.3781 68.8743
CA -18.3877 -0.846311 46.1804
CA 8.07327 -0.856375 70.853
CA -22.4397 2.1139 62.672
CA -0.238972 2.45589 79.8032
CA -24.8869 7.89414 46.8606
CA 15.6993 -7.0226 58.3858
CA -33.1384 -5.73842 67.6023
CA 3.10768 -9.076 46.3321
CA 8.32609 -13.9858 73.4825
CA -2.48867 7.94699 79.7413
CA 2.99709 -14.2039 91.1535
CA -24.3366 -11.5157 72.3876
CA 11.636 -14.0143 87.4159
CA -11.7971 2.87115 80.768
CA -7.65634 -11.3974 60.4781
CA -8.23339 -8.78549 87.8636
CA -35.5217 -4.63863 68.91
CA 5.74616 7.33426 56.5256
CA 11.7243 -15.8162 13.1923
CA -9.108 16.8705 38.1213
