489

CA 6.49397 -19.1634 78.1814
CA 6.91168 -18.855 71.5038
CA -2.25304 15.5684 75.4
CA 19.8477 -10.3906 14.8828
CA -29.969 -2.11733 68.6986
CA -23.5185 12.454 44.7942
CA 2.19643 -9.218 65.0964
CA -35.5813 -2.10462 72.5438
CA 19.2016 -27.7614 80.4064
CA 3.57463 -17.4515 68.986
CA -12.4761 18.8063 38.3691
CA -28.036 19.2902 51.9003
CA -10.7991 5.39049 32.0384
CA -1.75164 14.2069 76.5307
CA 23.7253 12.5224 79.0493
CA 8.22129 -5.01407 83.3791
CA -3.50134 -7.89301 52.9003
CA 25.2961 13.6302 80.3633
CA -36.7357 -20.2098 52.5503
CA -9.61804 -11.0769 86.5442
CA -36.903 -11.1521 53.042
CA 0.248989 -18.8144 85.1838
CA 13.1065 10.6115 79.5191
CA 18.9783 9.0063 60.5991
CA 7.58221 -8.91625 87.4721
CA 0.484593 -14.9636 74.495
CA -22.1869 1.7567 68.6143
CA 6.78032 -11.256 75.0069
CA -14.6681 -3.03205 73.4156
CA -35.2158 -20.149 51.5732
CA -10.6 18.4088 40.8526
CA 24.0559 -0.15937 62.8241
CA -16.3932 4.01485 78.5955
CA -21.8133 9.17448 43.1013
CA -4.55158 5.35906 67.4965
CA -21.9438 0.220117 66.8248
CA -22.1669 14.5418 44.1877
CA -12.3488 8.08998 49.7766
CA 26.0625 11.7492 75.8592
CA -4.30881 -3.34593 73.7759
CA -4.9351 1.89152 67.2358
CA -15.2678 -0.759998 73.8887
CA -10.2012 18.6432 38.287
CA -24.2282 -10.6855 84.0639
CA -30.9235 20.5202 45.9254
CA 19.6606 -9.34784 44.5325
CA 1.01641 3.44015 81.6935
CA 1.51597 18.131 70.4579
CA -8.00128 1.73625 58.1238
CA -25.4472 -14.4914 54.5581
CA 23.3477 -6.27102 54.4417
CA 20.1465 10.8133 64.706
CA -2.61063 -11.2515 50.6037
CA -15.3974 -11.3704 70.0918
CA 1.81728 4.0187 73.4036
CA 0.991094 9.69137 56.3706
CA 8.45647 -19.5071 80.5053
CA 15.589 -7.81892 49.863
CA -4.0526 -16.0057 50.7232
CA -34.3098 2.69409 52.3557
CA 21.8901 10.5246 60.5498
CA 24.1732 -8.87044 65.6255
CA -19.1023 -10.5987 81.3196
CA 25.674 19.7105 72.9088
CA -1.74991 -7.07189 61.9493
CA -32.0444 4.81558 67.3965
CA -18.6505 -10.8718 88.123
CA -24.4997 -5.11529 55.7961
CA 11.217 -9.67852 85.6949
CA 21.6444 -11.6693 52.0815
CA -37.7939 -9.61636 53.8756
CA -7.81907 -11.3486 83.8361
CA -13.5049 0.418882 84.2
CA -21.9562 -9.93892 71.0556
CA -10.0046 0.152354 53.395
CA 7.94025 4.61904 57.7678
CA 13.4397 -2.2677 56.7226
CA -23.9526 -9.72959 49.574
CA -25.1951 -10.4518 86.2323
CA -14.407 4.54298 80.8982
CA -32.8853 -6.54277 62.5984
CA -12.0922 -10.1846 76.4897
CA -3.58774 3.26332 30.6223
CA -30.3268 19.7716 50.589
CA 3.57092 7.73508 45.8165
CA 1.5494 3.65627 79.7328
CA -4.05047 -2.06977 30.6096
CA -2.92433 6.84877 44.4165
CA -27.4145 -3.9822 46.7364
CA -10.3588 11.9336 45.4911
CA -11.4834 -11.9203 73.1418
CA -31.4465 2.78294 45.8464
CA -2.33879 -0.328375 75.7598
CA 12.8198 -12.6853 19.8224
CA -8.98568 5.58196 46.0733
CA -3.8804 2.03376 64.4522
CA 14.5466 -5.03851 70.3757
CA 19.3252 0.975906 55.7864
CA -5.96127 9.29955 70.766
CA -34.2497 3.14488 45.5456
CA 22.2118 0.974232 62.8619
CA -4.97007 2.11988 34.0781
CA 0.0878629 6.63835 71.2976
CA 0.982391 19.0017 72.3819
CA -2.54659 2.49493 47.349
CA -15.7784 13.229 50.09
CA 24.2853 14.3669 77.1095
CA -8.22959 -3.71957 66.5937
CA -10.7622 -1.41388 79.6297
CA 22.6337 -26.8839 78.4399
CA 2.9667 21.4914 76.2483
CA -27.8912 18.8915 46.021
CA -31.6252 -4.28274 66.9238
CA -21.7348 -14.9414 74.3269
CA 19.4745 -9.37289 54.6995
CA -3.74212 -6.7746 58.4215
CA 17.8216 14.9177 78.5078
CA 3.99253 6.69942 82.31
CA -8.71982 -15.6315 70.054
CA 1.59791 6.95452 54.0242
CA 6.55716 -20.7468 81.8033
CA 20.0463 1.36028 51.7276
CA -18.589 -4.50766 51.6427
CA -16.4239 -13.595 70.6439
CA -1.66679 -3.96579 52.3501
CA -17.6578 -3.3957 49.2111
CA -14.1893 -11.1278 77.3661
CA -35.0128 -6.74881 55.2935
CA -13.2317 -13.4201 68.5231
CA 1.31541 6.62078 82.635
CA -1.8882 -19.1034 64.5408
CA -30.5571 19.3878 54.6396
CA 4.89276 -12.1422 72.7643
CA 25.8494 -10.4319 60.7339
CA 8.95827 -10.7955 83.6187
CA 15.1916 -5.00553 63.3653
CA 13.1238 -13.8347 62.6896
CA -9.56933 -10.6465 67.6064
CA -34.6012 -12.9367 53.3887
CA -7.42661 -11.4625 65.1693
CA -21.636 -12.603 87.1332
CA -11.547 -12.533 69.5912
CA -22.183 12.5799 41.2844
CA 14.8125 -24.5529 78.4472
CA -19.551 -13.1101 71.9809
CA -12.8584 0.0592251 72.9577
CA 10.1248 -4.0988 57.6006
CA -8.92784 -4.80834 68.9813
CA 21.3319 -6.74727 57.9786
CA -34.9015 -16.3334 52.6344
CA -23.4192 7.44677 64.5153
CA 14.8731 -12.9257 18.3542
CA 21.233 -13.5652 59.9123
CA -11.636 -7.71089 79.7103
CA -9.91694 -8.55502 73.8196
CA 15.6049 -9.02816 16.9797
CA 14.5922 -16.5979 58.5463
CA 17.5888 4.37271 59.8224
CA 16.5007 1.29023 61.7818
CA 13.5818 -8.48939 69.0174
CA 0.428859 13.251 55.4525
CA 14.2842 13.2032 79.2266
CA 7.82148 9.60139 56.0168
CA -13.2726 -2.94527 64.3436
CA -5.86425 1.19718 64.6806
CA -29.9506 0.327936 44.8376
CA -8.87062 -2.26782 32.8583
CA 3.14199 10.966 68.0076
CA 4.6036 -4.88206 61.4951
CA 3.59725 8.75762 67.7298
CA -4.97358 -19.3993 51.902
CA -5.69863 -2.30037 73.0763
CA 17.9957 2.15022 59.8287
CA -8.40679 9.56084 66.4521
CA -16.9245 13.0066 45.5563
CA -23.254 -14.9267 44.6811
CA 9.04831 -3.74133 64.2924
CA -10.8233 -8.26629 88.8452
CA -25.006 -2.45291 49.5524
CA -9.87716 -10.2258 79.7993
CA 12.0653 13.4967 71.2226
CA -11.1381 -5.47584 89.3653
CA 12.8207 -1.55186 62.3885
CA -21.787 1.55305 73.0697
CA -25.4701 15.5173 48.3382
CA 14.9623 12.8205 72.6995
CA 4.38131 -17.6609 81.7385
CA -2.58746 -1.83978 71.8877
CA 15.2619 -6.00367 48.8502
CA 9.70073 -8.36226 85.5843
CA -20.7357 12.1029 44.684
CA -15.2 14.0986 44.6739
CA -34.4825 0.384264 75.3845
CA -22.6901 4.99827 48.6484
CA -17.5133 8.39955 50.4209
CA -27.0728 -12.3383 48.971
CA 22.9548 -12.0033 54.6471
CA -0.753933 5.36435 83.6679
CA -10.5805 -1.59815 75.9475
CA -4.16273 9.72754 69.4561
CA -1.62668 10.7537 73.902
CA -16.0744 -14.7923 72.3358
CA -1.30458 -0.0960955 64.7207
CA -23.3587 14.1967 54.6226
CA 13.752 18.1502 76.396
CA 11.2763 -24.1422 75.7227
CA -24.1137 -7.99134 87.6483
CA -11.327 -1.83979 82.3153
CA -25.2294 5.91943 47.9327
CA -28.9094 -11.8151 55.4582
CA 22.4967 -28.8516 78.5188
CA -31.7537 8.69404 45.4007
CA 14.5864 -15.078 85.7908
CA -9.52433 5.56744 64.6241
CA -14.1089 -12.9346 82.308
CA -12.178 -6.05001 85.5071
CA 19.178 13.0098 72.7049
CA -12.5725 -11.0435 71.324
CA -32.1575 -8.78926 42.6649
CA 12.8737 -15.2292 85.2088
CA -4.75432 -13.6108 50.2012
CA 1.73984 16.4542 55.1932
CA -8.05145 -2.25373 63.9909
CA -23.2952 -2.13938 45.2044
CA 17.4524 -11.879 86.8676
CA 23.6298 -6.96629 68.7376
CA 2.64219 3.44281 68.2082
CA -1.51028 6.53187 59.0654
CA -8.65967 -1.27578 71.0553
CA 8.84111 -11.456 17.5251
CA 23.1756 -27.2023 83.0653
CA -0.00792546 8.77274 70.0153
CA -31.3248 -8.37096 44.75
CA -2.76038 -3.77417 43.2207
CA -5.07421 11.0113 67.927
CA -32.3148 -6.71684 43.9578
CA -35.3699 25.4146 42.9788
CA 9.14073 -10.2099 85.9051
CA -2.90216 -5.31392 51.7474
CA 22.4944 11.9262 59.0162
CA 16.6106 -6.38429 69.7899
CA -18.7693 -11.0452 65.5725
CA 1.24061 9.89155 70.8021
CA 12.1034 -11.5471 17.5794
CA 16.4224 -13.664 85.1033
CA 5.69876 -14.003 17.2632
CA -32.5354 -9.77627 54.4048
CA -27.6277 -17.1018 48.6903
CA -1.74524 5.562 74.8606
CA 10.2525 -5.60413 61.1795
CA 25.7832 -11.5215 64.3038
CA -6.25168 3.78354 56.462
CA -24.3305 -5.057 46.9592
CA -2.71527 6.79965 57.2044
CA 19.7192 5.11889 58.0528
CA 18.9883 -5.99155 64.2457
CA -6.40414 2.49629 74.1483
CA 12.8522 -10.4643 86.5118
CA -9.18768 18.3826 43.6794
CA -3.37608 -3.69781 77.4299
CA -26.8194 -7.6348 69.4047
CA 15.5032 -9.94657 70.7353
CA -33.4431 -9.50372 57.5439
CA 14.3866 -13.069 63.7427
CA 17.4417 8.63669 72.2638
CA -14.0041 -6.84004 75.0479
CA -24.9221 -18.3317 46.822
CA -7.08748 -5.29334 71.2097
CA -11.8858 5.53135 36.611
CA 22.3513 -10.5557 47.4698
CA -0.303128 -3.0912 71.8714
CA -24.4946 7.38531 51.7523
CA -24.0134 -13.4141 87.6745
CA -16.8594 -11.0328 71.113
CA 10.3444 -14.9593 56.2537
CA 0.553278 9.23156 74.2158
CA 27.1301 16.0951 69.1742
CA 23.878 -14.7667 61.0221
CA -12.1971 -9.41506 79.357
CA 3.27069 6.06158 56.9567
CA -13.3664 21.4578 35.3999
CA -0.346642 3.22724 54.7165
CA -11.0576 -9.28823 68.4545
CA -2.2739 -7.68039 50.2583
CA -18.5204 -15.607 77.5037
CA -12.1066 -13.7807 72.0744
CA 29.3061 17.2049 76.3381
CA -25.5134 9.85537 37.0519
CA 17.1923 -15.6201 60.525
CA -15.9989 -4.96476 46.8952
CA -15.8927 15.5674 35.3471
CA 3.28519 12.5671 76.6031
CA -6.43994 -5.17859 29.8996
CA 12.3922 -4.24838 57.0426
CA -26.2391 12.6667 48.0293
CA -10.0831 -12.9724 67.1572
CA -12.8809 -6.06834 80.4573
CA 2.46932 -3.05486 70.0239
CA -29.7911 -5.11451 42.4909
CA -5.05763 5.68417 48.4947
CA 15.5646 2.82386 62.2696
CA 1.95923 -14.6603 86.1267
CA -9.77836 -7.05646 82.6856
CA 4.06845 -14.0107 88.1287
CA 13.145 -7.56899 85.2408
CA 20.1419 2.97795 52.5489
CA 10.8257 9.87308 79.4147
CA -8.06088 -5.68689 64.0729
CA 26.638 15.7508 79.5711
CA -27.9024 -16.3446 46.5825
CA 17.1173 -24.7832 80.8107
CA -13.4438 16.6863 41.8624
CA -32.5617 6.09478 49.2682
CA -23.6453 -13.2184 85.7345
CA 22.0409 -7.92439 68.709
CA -3.49778 -23.3004 66.6658
CA -28.1004 7.45444 73.1758
CA 21.3854 2.16199 58.1796
CA -13.9131 -4.44666 80.888
CA 14.6905 -10.8478 13.454
CA 7.78782 9.07232 76.2726
CA 11.5339 9.78737 82.6872
CA 12.5448 -15.1832 60.2947
CA -29.7913 7.57979 42.478
CA -0.23223 16.4868 57.3399
CA -7.20866 -2.6513 79.1375
CA 14.7686 -21.3274 75.3443
CA -21.2068 9.93365 65.4844
CA -28.2524 -6.06126 66.0887
CA -25.0012 -14.8539 48.685
CA 7.71748 -15.1404 87.0915
CA -23.6692 -14.3196 91.1425
CA -0.177244 1.04504 73.8599
CA -26.5106 -5.64623 58.7117
CA 18.8086 -11.9875 68.6941
CA -4.36172 -9.34577 59.9586
CA -9.25167 1.2659 74.4987
CA -31.9473 6.08884 52.8928
CA -23.2509 5.2351 50.4955
CA -4.85079 -14.5883 52.3554
CA 0.405779 -8.57556 94.0454
CA 4.00543 -15.2253 51.4981
CA -32.5548 -9.9892 68.4426
CA 23.7412 -9.63684 60.3265
CA -25.589 -13.0314 49.7557
CA -19.7901 11.2204 47.2884
CA 7.94796 -4.58578 59.913
CA -10.5006 -14.1311 70.6821
CA -29.6336 -13.6228 89.4714
CA 3.14566 6.42781 74.1373
CA 3.64447 -10.8054 90.7543
CA -28.4169 -13.7206 48.0518
CA -18.2758 15.5157 48.6828
CA -0.286813 4.09948 48.15
CA 26.0844 -12.3955 51.6684
CA -12.5887 -3.95391 78.5313
CA -13.3125 -1.62084 74.6345
CA -7.72235 -5.82226 73.6119
CA 15.6567 13.5805 81.6498
CA 4.74132 1.97119 46.3582
CA 7.58108 -13.3093 70.5218
CA 4.2794 10.0657 71.9705
CA 5.67683 9.61563 74.8868
CA 6.62716 -3.33609 57.4694
CA -14.9274 -6.22882 88.7975
CA 28.9158 14.2958 77.1536
CA -7.63232 -9.53467 61.3881
CA -27.8735 -7.44551 42.4984
CA 11.2548 -8.15551 16.5182
CA -5.87916 -3.79259 74.8331
CA -22.8248 -13.6508 83.2037
CA 8.04587 12.8854 72.8006
CA -23.2144 -8.46212 79.8051
CA -8.17419 -4.21187 31.9053
CA 2.11906 2.16408 75.1244
CA 9.03067 -4.53002 55.4038
CA -9.5519 -2.82407 65.2464
CA 13.2941 -11.7275 72.4308
CA -13.4887 13.6375 42.6884
CA -15.5126 -7.6301 90.5157
CA -13.4597 -1.59611 76.5833
CA -4.62185 -19.3373 68.8673
CA 15.4784 10.9203 80.2312
CA 7.52894 9.08741 64.3806
CA 14.5779 -8.45564 84.2259
CA 25.0991 -13.8208 67.9379
CA -18.8799 -8.58405 76.4663
CA -21.936 -4.70219 54.6916
CA 20.6301 -9.50702 47.9218
CA -6.79603 -1.7224 77.0887
CA 3.3452 -2.75745 59.1173
CA -19.0262 -16.4588 73.5776
CA -27.8286 -6.67246 81.4384
CA 25.5693 8.77718 82.7494
CA 23.5976 6.47099 59.013
CA -23.3648 11.2679 54.6486
CA -21.1172 -11.9412 68.3069
CA 4.64256 -7.40548 90.8486
CA -15.1343 11.6035 49.1722
CA -11.5207 6.18875 51.432
CA -21.9836 16.6518 44.8371
CA -9.12398 -3.87039 73.6839
CA 7.66574 -20.0375 74.6687
CA 1.03455 -7.67441 64.866
CA -22.6927 4.53452 44.6335
CA -9.77358 5.78184 41.5421
CA 25.4955 -14.4977 53.2163
CA 13.5713 -20.2637 16.2042
CA -7.07653 -10.8061 81.2838
CA -33.377 1.96509 72.0403
CA -2.99227 -1.94639 63.0875
CA -12.6586 -1.4976 84.5624
CA -30.9652 21.8957 42.7526
CA 21.6706 -11.1685 66.484
CA -31.6335 4.72333 45.6946
CA -24.5116 8.8209 40.1417
CA 22.5571 15.8377 80.0739
CA 21.1728 -7.72877 51.6428
CA 14.0775 2.18496 63.5557
CA 3.7054 9.96111 79.5018
CA 8.66861 1.05063 68.3808
CA 3.29013 -6.91403 46.0324
CA -36.1168 -15.2309 56.0777
CA -0.738491 -13.2256 51.704
CA 21.9886 -7.13865 64.5658
CA 16.3646 -11.078 50.4848
CA 11.3398 -13.6498 18.9305
CA -20.0484 -14.0466 66.9486
CA -9.84618 -7.9402 77.2904
CA 22.9456 -17.8417 63.9419
CA -31.7589 0.373576 72.8852
CA -13.4928 16.9874 44.3045
CA -24.7242 -16.6999 48.3372
CA -1.70958 -8.71562 48.6991
CA -17.9286 -3.38174 74.7122
CA -26.518 4.29133 46.656
CA 6.00182 1.71938 81.069
CA -0.150155 0.618608 48.2173
CA 18.4089 13.1966 81.0087
CA 11.3638 -18.3956 80.939
CA -3.53147 14.4044 76.2393
CA 16.6336 -27.5958 83.8791
CA -6.21321 3.14246 31.0503
CA -22.4974 0.99053 70.2177
CA 4.73551 -1.63367 57.5127
CA -29.5878 -7.62273 63.2724
CA 18.0219 18.9448 76.066
CA -15.2706 -1.75164 52.8507
CA -29.0507 -7.52556 65.0012
CA -24.7457 12.6408 50.7029
CA -27.6837 4.00245 69.6109
CA 23.0623 14.3648 81.0262
CA 7.32687 -13.929 19.349
CA -30.203 -9.46455 70.0854
CA -21.5632 5.14229 67.7853
CA -7.31736 9.09979 44.3331
CA 9.37103 -12.2344 84.9326
CA -0.637945 -18.4896 66.7216
CA -9.85064 -4.74183 78.7865
CA -16.2217 -1.58558 75.5584
CA -17.7476 2.05256 77.4733
CA -33.3956 0.843803 55.8992
CA -25.9129 4.65002 70.4271
CA 7.78473 -12.0361 87.4268
CA 4.45779 -8.78689 65.453
CA 22.9328 8.2326 56.2833
CA 23.3683 8.90159 54.4611
CA 5.68035 -2.87084 65.5406
CA 20.6173 -1.3067 55.4821
CA 20.3536 -24.5656 82.0648
CA -22.362 8.61819 47.7318
CA -32.5405 -18.1854 53.3593
CA 18.6519 -10.2969 51.3888
CA -14.0106 -9.80607 80.0089
CA 5.75113 -5.3777 88.6201
CA 10.5091 -9.58915 69.8341
CA -2.34106 -0.14315 55.3014
CA 5.73323 6.09362 84.805
CA -18.4142 11.366 52.6153
CA 12.6637 -10.2802 71.363
CA -24.3366 -11.5157 72.3876
CA 8.18011 7.00217 62.661
CA -33.542 -7.2703 69.0604
CA 2.76332 5.5987 48.805
CA -7.24748 -10.6895 70.2242
CA -35.5217 -4.63863 68.91
CA 23.7496 -12.5242 47.7994
CA 15.7598 8.19777 63.9282
CA 19.2349 -4.23525 52.0861
