489

CA -17.1422 -7.74615 94.8084
CA 29.3883 12.4374 78.6776
CA 13.6208 -3.47075 49.5712
CA 21.5111 -2.20488 50.9146
CA 14.921 -17.5375 88.0347
CA 9.47005 -21.704 81.9956
CA -3.54315 7.89038 33.7108
CA -25.3231 -16.0198 85.2069
CA -30.637 -12.6806 56.0468
CA 3.57463 -17.4515 68.986
CA -12.4761 18.8063 38.3691
CA -28.036 19.2902 51.9003
CA -10.7991 5.39049 32.0384
CA -7.96713 21.6847 43.1531
CA 10.767 -5.37744 56.0472
CA -27.2252 -6.32816 61.0644
CA 6.86845 -8.19463 56.6149
CA -7.76603 -7.12286 86.6532
CA -36.7357 -20.2098 52.5503
CA 5.28535 -19.3432 74.3596
CA 13.1135 15.1557 72.8962
CA -26.8537 -15.2723 71.0237
CA 8.69667 5.55212 58.9428
CA 16.641 -29.4951 76.6534
CA 2.92509 -13.7901 51.2533
CA 0.484593 -14.9636 74.495
CA -14.3102 7.56319 52.2551
CA -31.2713 0.846153 47.8959
CA -18.471 -12.432 68.06
CA -20.9679 3.91819 76.9736
CA -10.6 18.4088 40.8526
CA -14.4992 7.06144 48.8113
CA 16.0211 -27.967 74.7935
CA 4.23944 16.8108 70.5343
CA -19.7169 7.57928 44.6067
CA 0.307537 7.96505 48.6142
CA 9.80748 -8.1976 56.1998
CA 16.356 -8.14207 92.6485
CA 15.6198 -7.6168 63.0537
CA 13.2743 -10.0327 54.3019
CA -14.1175 8.94796 82.0904
CA -27.4893 6.38141 68.8157
CA 15.003 -14.7309 84.3559
CA -24.2282 -10.6855 84.0639
CA -7.97092 7.34662 33.1656
CA 5.35666 -16.4043 70.0464
CA 20.6459 1.54797 64.3396
CA -10.3383 2.23662 29.1782
CA -8.00128 1.73625 58.1238
CA -25.4472 -14.4914 54.5581
CA 10.2956 -3.61597 63.0251
CA -8.22684 -11.8517 61.4933
CA -2.61063 -11.2515 50.6037
CA -18.3258 -8.24196 91.6339
CA 1.81728 4.0187 73.4036
CA 0.991094 9.69137 56.3706
CA -10.6376 -2.20902 80.5464
CA -1.53646 5.82333 71.8365
CA -2.44297 6.93616 32.4557
CA 3.35916 11.8402 56.2576
CA 11.0835 5.42838 60.3172
CA -20.7489 -14.0391 67.7684
CA 16.2978 -9.25309 64.1039
CA 6.98364 -13.7654 73.2422
CA 15.9933 -2.91382 66.9196
CA -17.6663 -9.7999 78.1473
CA 6.88985 -24.3077 74.1747
CA -17.0092 -8.97247 69.3604
CA -15.9514 21.856 43.4796
CA -10.9464 17.5173 83.0692
CA -14.5948 -9.21982 89.5697
CA 23.0082 -22.1582 75.6285
CA 18.7127 -14.3113 69.2896
CA -24.4318 -1.38094 65.623
CA -10.0046 0.152354 53.395
CA -2.51557 14.2697 69.9592
CA -30.7878 -4.03824 69.0813
CA 3.38832 8.11971 54.5837
CA 18.1883 -26.5477 75.8657
CA -14.407 4.54298 80.8982
CA -18.1392 7.41807 48.849
CA 24.8005 -11.4672 45.0481
CA 27.5629 13.8616 80.8567
CA -30.3268 19.7716 50.589
CA -27.4353 -5.2106 59.3002
CA 1.5494 3.65627 79.7328
CA 15.5547 -12.743 55.5519
CA -5.60453 -11.3674 60.4727
CA -14.8461 3.31789 77.6028
CA 2.09128 -5.13429 91.2514
CA 7.27255 0.661774 56.8768
CA -4.46613 -12.2863 62.6733
CA -30.0777 -5.80724 82.4622
CA -8.86342 19.5451 43.2885
CA 9.53074 -1.74695 62.4648
CA 10.0536 -5.75592 64.9031
CA 14.5466 -5.03851 70.3757
CA 23.5533 12.9103 76.5503
CA -24.4085 4.94755 69.3321
CA 1.36958 -16.9494 70.9168
CA 22.2118 0.974232 62.8619
CA -4.97007 2.11988 34.0781
CA 7.12005 -16.0911 50.6681
CA 6.71038 -9.88352 52.1755
CA 8.03111 6.6675 64.6004
CA -1.87507 10.9055 68.0699
CA -28.4047 -14.7145 89.9788
CA -6.59516 8.83106 49.8029
CA 15.7451 -10.9172 88.5603
CA -28.9707 15.196 45.7016
CA 13.3354 -11.7019 87.7741
CA -25.3022 -11.0571 46.6577
CA 4.79664 -15.1152 72.9383
CA 10.0842 -19.3844 78.0792
CA 19.1497 -28.0375 75.3614
CA -18.544 7.25749 40.2564
CA 12.4096 -1.65103 50.8979
CA -27.702 -7.09586 69.4197
CA 4.91314 -4.50101 91.6593
CA 15.1829 -2.99074 53.4084
CA 27.2606 -15.8486 75.6931
CA -22.0473 -16.1808 49.1496
CA -18.589 -4.50766 51.6427
CA -13.5777 6.18049 83.938
CA -1.66679 -3.96579 52.3501
CA -5.59249 11.7474 80.4865
CA -14.1893 -11.1278 77.3661
CA 15.021 -20.8993 91.8866
CA -6.54802 11.9056 70.0756
CA 0.404993 -10.6226 54.6455
CA 3.82025 -3.17805 56.706
CA -11.3504 -0.433816 72.3631
CA 4.89276 -12.1422 72.7643
CA -20.2374 -10.5734 71.9401
CA -16.6652 12.7293 39.5568
CA 15.0891 -21.7372 94.0536
CA 18.8743 -11.9668 89.8938
CA -18.8927 1.57219 68.9641
CA -18.2341 15.2826 38.1687
CA 24.4557 10.5295 84.2048
CA -7.73595 -4.83583 85.5288
CA -11.547 -12.533 69.5912
CA -23.2193 -13.8553 44.2526
CA 1.16172 7.0731 83.1028
CA -17.3765 12.1801 48.1243
CA -24.899 -7.05247 53.8118
CA -4.36253 6.39684 54.9886
CA 6.64465 -6.86111 55.2794
CA -13.0875 12.6325 76.489
CA 3.43448 -14.6645 71.6961
CA 21.3567 -7.7839 54.26
CA -6.18376 6.27673 57.7208
CA 16.1846 -25.6364 18.9687
CA 6.38564 -23.3136 81.8168
CA 15.5179 -13.313 65.5832
CA 15.6049 -9.02816 16.9797
CA 24.9164 -19.3539 75.9123
CA -23.037 -3.25223 51.101
CA -17.4807 -9.35321 93.644
CA -4.47833 18.4784 41.8393
CA 0.428859 13.251 55.4525
CA -11.2435 4.15947 80.8706
CA 21.8403 4.57434 58.7964
CA -18.5397 3.64581 74.8869
CA -20.4273 -7.8114 75.4429
CA 18.989 14.4319 75.6872
CA 25.9306 -10.3125 66.6477
CA -28.5455 0.279037 75.5987
CA -26.7563 -17.3047 91.2523
CA 6.88969 -11.4041 49.4641
CA -26.0392 -5.52448 66.2749
CA 9.58355 -17.0656 48.5004
CA -22.0625 -10.0668 66.8947
CA 22.8834 -26.1947 73.1561
CA 5.21991 -6.1426 78.8223
CA -34.7087 -15.9965 56.0589
CA 15.4186 6.93476 62.4695
CA 11.1585 5.89265 57.774
CA -10.0406 4.25438 34.8676
CA -5.39024 -7.18342 81.671
CA 21.8982 -4.66841 57.8465
CA -11.1381 -5.47584 89.3653
CA 14.5193 -7.27981 92.1233
CA -20.9376 -7.66108 49.4582
CA -25.4701 15.5173 48.3382
CA -13.5268 -2.451 87.3922
CA 4.38131 -17.6609 81.7385
CA 12.5266 -12.4913 69.5702
CA 15.0528 9.9933 82.113
CA -22.321 -6.32497 65.8538
CA 7.88655 7.57623 66.4167
CA -15.2 14.0986 44.6739
CA -5.15656 11.1415 41.4703
CA -28.5482 -12.1051 63.1256
CA -15.069 -9.63689 69.2133
CA -32.233 21.5728 53.6659
CA 22.9548 -12.0033 54.6471
CA -16.38 3.89184 52.0372
CA -25.6633 2.36747 42.5598
CA 19.0479 0.11687 63.8442
CA -21.6961 8.9279 50.954
CA -13.6423 6.25517 79.5759
CA -6.76313 -9.07776 60.6835
CA -9.0451 -15.9863 72.8485
CA -32.0298 -6.23099 71.9805
CA 11.2763 -24.1422 75.7227
CA -18.7808 4.40361 79.9052
CA 2.21378 9.53792 49.929
CA -5.7313 15.0143 83.2082
CA -28.9094 -11.8151 55.4582
CA 3.53242 0.0368612 45.0067
CA -7.88433 2.07078 49.084
CA -6.09317 -5.24628 84.8885
CA 8.4523 1.21741 61.3265
CA 13.7522 -11.8806 91.358
CA -33.4475 -7.59518 71.4851
CA 11.594 11.3917 69.786
CA 16.7049 -10.2219 90.0787
CA -32.1575 -8.78926 42.6649
CA -24.3459 -5.8853 85.4751
CA -20.8572 3.64172 44.5126
CA -23.6795 -9.54539 69.2251
CA -34.0901 -7.01337 60.3967
CA -35.9606 -2.51075 74.9853
CA 12.1974 -2.93614 72.677
CA -14.7615 17.1978 32.0857
CA -24.1298 -15.7058 65.0869
CA 3.09878 8.34416 76.9091
CA -8.31324 -11.2753 70.1618
CA 28.0192 -12.5356 45.447
CA 23.1756 -27.2023 83.0653
CA -2.80817 -14.1288 62.4152
CA -31.3248 -8.37096 44.75
CA 4.2493 0.489091 76.0894
CA 0.246741 3.28948 84.183
CA -12.1753 12.0468 34.3906
CA -17.4096 -12.6447 73.1256
CA -32.3924 0.0417039 49.257
CA -5.85609 6.88498 45.2851
CA -22.2565 15.8737 50.7288
CA -3.39567 -4.97395 66.4623
CA -6.61687 14.638 80.5441
CA 13.16 8.35368 65.2727
CA 12.1034 -11.5471 17.5794
CA -5.95189 5.97645 29.9423
CA 5.69876 -14.003 17.2632
CA -22.0889 -11.1937 85.2745
CA -29.5392 7.19743 53.3983
CA -14.4269 -8.71729 78.4774
CA 22.7549 -6.24794 49.6537
CA 25.7832 -11.5215 64.3038
CA 6.45747 -14.7813 49.3275
CA -24.3305 -5.057 46.9592
CA 7.05544 -8.13013 93.2356
CA 19.4062 6.8905 88.0451
CA -23.7771 5.77464 41.6287
CA 20.5981 9.20376 85.836
CA -30.0589 -11.8921 91.0859
CA -19.2655 5.7731 78.3309
CA -3.37608 -3.69781 77.4299
CA -3.52081 -15.406 63.6834
CA 11.8448 6.48318 61.7321
CA 19.697 -8.97519 49.0943
CA 26.5359 -22.8659 78.5993
CA 8.29746 0.493924 58.8867
CA -27.0811 -13.8469 88.7874
CA 0.513326 0.412605 55.857
CA 20.3302 -16.6672 59.1943
CA 2.86532 -4.03424 43.3625
CA 22.3513 -10.5557 47.4698
CA 20.412 3.4056 61.0382
CA -23.8738 -1.98491 74.901
CA -24.0134 -13.4141 87.6745
CA -28.1161 -3.52729 66.5726
CA -29.363 0.463353 48.4694
CA -28.5991 8.54644 54.2188
CA -26.6165 -8.54152 66.1887
CA 23.878 -14.7667 61.0221
CA -3.07362 -8.28813 48.2564
CA 11.3384 -3.31791 53.5568
CA 7.12191 -6.41443 58.3088
CA -19.522 -8.4184 78.1644
CA -11.0576 -9.28823 68.4545
CA -25.9463 -12.566 68.8964
CA -10.504 5.7597 29.7503
CA 16.2791 -20.4 95.7542
CA -25.4031 -5.00837 55.2977
CA -4.08291 11.1408 78.4098
CA -17.1047 -5.46181 79.2946
CA 1.60544 14.7846 66.7003
CA -15.8927 15.5674 35.3471
CA 3.84797 9.75569 65.2811
CA 10.696 14.091 72.3929
CA 12.3922 -4.24838 57.0426
CA -2.07039 11.0582 78.2931
CA 16.2112 6.75628 55.4139
CA -4.18939 -3.69375 51.5876
CA 4.01796 -12.5037 50.0127
CA -34.7532 -6.56687 67.2106
CA 29.2238 -11.0054 68.6894
CA 16.164 -21.7507 18.1064
CA 1.95923 -14.6603 86.1267
CA -9.77836 -7.05646 82.6856
CA 14.9597 -3.88408 65.5114
CA -2.84533 -7.20451 52.6706
CA -31.7938 0.700896 51.8191
CA 10.8257 9.87308 79.4147
CA -16.1605 18.5742 45.1791
CA 14.2577 0.191595 52.3471
CA -27.9024 -16.3446 46.5825
CA 14.7033 21.3212 74.313
CA -10.7421 -4.94036 83.0526
CA -32.5617 6.09478 49.2682
CA -5.80729 -13.0964 65.0643
CA -34.5097 -5.31999 71.3833
CA 24.2007 12.7643 78.6598
CA 20.2623 11.9093 76.1471
CA -6.79613 -0.500889 52.2604
CA -14.1427 11.0409 74.401
CA 13.2304 10.4705 68.6499
CA -8.3233 -6.75979 59.6392
CA 11.5339 9.78737 82.6872
CA 20.8518 -13.4077 54.4409
CA 15.5898 -19.192 86.7236
CA 14.2041 -26.9277 76.8407
CA -7.66438 17.4979 42.1512
CA -24.222 -10.4232 53.2266
CA -13.4112 -10.3434 72.1104
CA -11.193 7.9095 42.4259
CA 9.18629 4.81615 62.1659
CA -10.6416 6.55958 57.0174
CA -23.6692 -14.3196 91.1425
CA -36.8371 -6.43608 67.6291
CA 7.34338 -9.87894 75.5755
CA -26.5282 3.00346 50.9893
CA -3.54193 -8.53662 62.5228
CA -26.1427 -4.17088 49.4267
CA 16.2389 9.63005 57.2573
CA -34.6132 1.51077 74.0505
CA -31.9672 -16.2529 56.7613
CA -16.4038 -6.52435 52.3847
CA 4.00543 -15.2253 51.4981
CA 0.676191 14.2041 76.5492
CA 0.798543 -11.5263 52.4075
CA 8.57142 -12.8322 52.0218
CA 5.57383 -8.62644 48.8648
CA 22.6371 -16.4153 56.6003
CA -12.9574 6.7893 74.3296
CA 4.81912 -4.8376 63.9881
CA -30.8639 -7.56152 70.0433
CA -22.5333 -0.348897 51.1133
CA -22.2738 -14.178 50.2071
CA 24.1907 14.8044 76.6714
CA -22.98 -7.66056 86.2422
CA -6.84328 2.52447 45.2503
CA 1.32011 -3.4569 74.4836
CA -22.4188 12.4664 53.4077
CA -15.884 16.3449 39.8765
CA 22.8113 -14.5222 57.6805
CA 4.74132 1.97119 46.3582
CA -15.2906 -10.4141 66.9332
CA 4.48264 -10.1689 88.7294
CA -12.4872 -0.643819 75.3754
CA -18.8957 -15.0564 48.5492
CA -14.9274 -6.22882 88.7975
CA 14.1205 8.95175 74.9787
CA 7.09687 10.6892 77.0197
CA -14.6252 -11.8215 84.2919
CA -16.4593 -9.9635 73.62
CA -5.18058 4.49797 72.1127
CA -25.4958 0.74002 51.3869
CA -17.3951 -14.5156 45.2197
CA 9.15748 -2.22887 59.0457
CA -33.3223 -3.54884 72.0497
CA -10.5933 15.6704 44.4329
CA -21.3303 -8.62141 72.1412
CA -1.57863 7.108 70.2365
CA 13.2941 -11.7275 72.4308
CA 11.0073 -9.04614 73.1699
CA 0.669827 14.9592 53.6785
CA -5.08316 -7.33592 53.0803
CA 19.7275 -21.0623 92.9299
CA -2.8039 15.2068 72.8294
CA -32.6689 -3.34228 47.0699
CA 11.339 -8.74392 84.3342
CA -27.3081 -14.9707 51.8924
CA -18.8799 -8.58405 76.4663
CA 2.69381 -5.75079 65.0276
CA -16.1598 -5.58819 93.3524
CA -14.4849 5.63308 76.5594
CA 11.038 3.41713 58.8028
CA -19.0262 -16.4588 73.5776
CA -27.8286 -6.67246 81.4384
CA 25.5693 8.77718 82.7494
CA 28.4337 7.29297 79.9533
CA -23.3648 11.2679 54.6486
CA 6.28288 -14.6982 65.8685
CA 13.4492 5.71665 64.8817
CA -14.0745 12.2234 34.6554
CA -11.5207 6.18875 51.432
CA -17.7221 -7.3606 78.377
CA 22.5445 13.0797 74.2393
CA 2.63506 8.85886 60.0499
CA -31.1677 -10.964 54.1293
CA 7.22035 -23.6888 79.3487
CA -9.77358 5.78184 41.5421
CA -29.9597 -17.1343 47.4798
CA 13.5713 -20.2637 16.2042
CA 14.7496 -26.1451 82.5406
CA -11.8215 8.78182 36.4855
CA -2.99227 -1.94639 63.0875
CA 26.587 6.50034 79.0911
CA 1.43951 16.2743 78.8436
CA 10.7641 -17.01 84.6085
CA 6.48717 -1.31429 88.3415
CA -32.3188 -0.573772 70.999
CA 22.5571 15.8377 80.0739
CA 17.6779 21.7908 75.3773
CA 24.6205 -4.64077 54.5392
CA 1.32722 -3.89164 51.9629
CA -20.3141 3.86683 51.6349
CA -20.7557 -13.6838 64.6537
CA -18.3339 -16.6474 83.1899
CA -12.1636 21.8056 39.8336
CA 18.6892 -8.04362 59.9551
CA 4.9669 -15.1537 81.7478
CA 12.4732 -22.2052 17.3769
CA -6.67358 -14.7764 65.5371
CA 7.25452 -14.5269 84.1988
CA -14.89 -19.999 72.4285
CA 6.18534 -8.57883 60.1174
CA 16.647 -8.74192 87.5736
CA -2.48038 9.92431 24.6204
CA 9.1337 -5.93826 59.4212
CA -17.7382 5.44192 77.1793
CA -27.0182 -3.91393 69.0948
CA -20.3404 -13.134 81.6772
CA 23.9369 20.2572 80.6924
CA 2.72691 -12.1495 68.8036
CA -15.2124 -9.15743 92.9084
CA 23.4534 -12.5248 45.7113
CA 18.8992 -19.5136 87.595
CA 11.0077 -3.58434 65.6782
CA -22.4974 0.99053 70.2177
CA 22.9726 -28.7538 79.3381
CA -29.5878 -7.62273 63.2724
CA -10.4983 -5.76809 27.1802
CA 12.9848 -2.32171 52.84
CA -9.79079 2.07011 72.1339
CA -20.6762 9.62773 49.0629
CA -4.88289 -5.13877 81.4745
CA -1.26235 7.99227 73.8031
CA -29.8628 -1.80262 72.293
CA 17.7348 -21.357 76.6461
CA -29.2387 -0.983147 46.2443
CA 19.4351 -5.91666 56.3588
CA -2.57386 18.7276 52.6264
CA -0.637945 -18.4896 66.7216
CA 12.2944 -27.6302 80.7757
CA -16.2217 -1.58558 75.5584
CA 14.4826 15.7266 75.3846
CA 8.86059 -6.76712 72.852
CA -14.764 -2.64472 52.1964
CA -9.01661 -5.43069 81.2297
CA -15.8402 -7.86929 87.6321
CA 15.8097 -27.6733 80.1563
CA -5.62958 9.93403 27.2915
CA 1.13101 -8.10696 64.8243
CA 15.4944 8.80335 85.7031
CA 5.5495 -13.8098 71.2782
CA 0.389742 11.1547 69.2648
CA 15.9801 6.69775 84.5248
CA -4.83542 12.1798 23.723
CA 20.6675 17.447 71.2738
CA 5.75113 -5.3777 88.6201
CA -13.1665 2.84548 76.9766
CA -35.7051 -3.1661 65.9999
CA 3.65976 -10.4883 45.0237
CA -18.4142 11.366 52.6153
CA 12.6637 -10.2802 71.363
CA -30.0921 -3.00785 67.3831
CA -19.267 -0.0864759 70.2864
CA -7.00762 -3.44158 49.9335
CA 2.76332 5.5987 48.805
CA 18.2839 -24.3972 77.2964
CA -17.343 9.1193 47.4713
CA 0.0610964 -5.8036 65.7085
CA -30.9045 -14.2887 69.7752
CA 10.153 6.81708 62.882
