489

CA -17.2708 7.94265 80.4108
CA 17.1011 24.8495 73.0999
CA -5.53295 19.559 48.3158
CA -10.2609 -8.37993 37.9453
CA 10.2071 12.7161 67.4178
CA -2.75546 -1.99354 56.8233
CA -7.60741 -23.0593 34.8184
CA -1.93382 -11.848 46.545
CA 10.4146 -7.11948 66.1453
CA 8.94259 8.06279 60.9639
CA 5.9035 -14.9911 64.1285
CA -18.2489 6.77218 55.7565
CA -34.5308 -18.5467 35.0869
CA -23.6324 10.6069 49.542
CA -18.2192 19.1876 32.1531
CA 29.8433 5.06731 69.3345
CA -20.5921 26.3123 35.6698
CA -11.7877 -12.8728 38.4494
CA 20.3782 16.8249 26.0163
CA 23.7083 4.26049 75.9265
CA -22.0705 13.1541 40.5861
CA -6.58596 -11.8043 84.2663
CA 15.3731 -6.97403 49.0078
CA -3.55227 -15.028 84.39
CA 9.09039 -1.41532 60.1637
CA 5.58312 -26.5284 60.6916
CA -17.1572 14.6619 37.07
CA -8.3884 7.49085 73.8717
CA -3.77003 -10.4906 49.7445
CA 5.79765 -16.8595 63.685
CA 10.1842 19.5111 52.3053
CA 14.3154 8.71944 52.3835
CA 2.95164 -10.7649 49.0768
CA -12.7449 -2.99627 39.6278
CA -12.5424 1.4686 41.1057
CA -15.208 -1.03736 37.0202
CA 31.8532 -8.15159 75.0403
CA 4.83037 21.6389 67.2484
CA 15.8271 2.30523 65.1309
CA -30.6828 -2.17388 55.4704
CA 11.5916 -1.04075 81.9043
CA -39.0408 1.27131 56.9883
CA 12.1006 16.4775 50.1996
CA 20.776 1.36589 51.5184
CA 14.9054 0.525733 59.4959
CA 4.5971 9.94146 49.0809
CA -15.1252 -16.8703 35.994
CA -1.5009 -3.99729 20.4738
CA -33.2425 0.826903 76.4733
CA -27.0885 3.81619 41.5082
CA 8.8772 16.2994 48.2787
CA 31.2068 0.906918 67.4761
CA -30.4277 -3.69718 52.7266
CA 4.71206 -4.69525 81.5864
CA -18.7224 15.3855 38.5738
CA 40.4156 10.3519 54.6624
CA 19.841 -34.0578 43.3791
CA -32.5887 12.1156 48.7172
CA -21.5985 4.75392 63.9967
CA -19.6357 -17.1964 70.4288
CA 4.55623 23.7179 39.416
CA 8.20656 3.23148 61.795
CA 21.7723 -6.00133 42.4951
CA -21.8712 14.8018 51.9422
CA 4.3829 19.8887 38.1483
CA -24.2771 -2.12335 48.6596
CA -21.7967 7.80054 68.5279
CA -14.1335 -2.85344 46.7838
CA -20.6487 11.6775 57.9487
CA 1.74508 14.1847 44.9291
CA 22.1177 -15.5101 49.7845
CA -11.4269 -11.8774 35.4484
CA -29.8336 9.31066 69.6102
CA 8.77124 14.4949 37.0191
CA -38.0125 22.3527 47.4386
CA 7.34845 24.8339 72.1696
CA -22.245 9.2567 49.5178
CA -3.88224 -2.5428 39.455
CA 7.40932 -7.85427 48.0168
CA 0.654214 12.1208 43.8466
CA -21.6411 14.9327 50.0756
CA -0.543055 -15.2471 54.3677
CA -8.16439 29.0881 52.1378
CA -22.8328 8.96678 46.3369
CA 10.0687 20.5604 72.3542
CA 17.584 11.0126 61.7988
CA -13.0939 3.48979 43.6943
CA 7.47938 16.4253 60.0025
CA -25.0761 10.406 63.0884
CA -34.1714 17.4555 46.8495
CA -5.92729 -9.47301 68.5363
CA 34.2772 7.98152 73.7269
CA -0.975833 25.026 39.591
CA 4.24136 24.2927 31.7896
CA -5.91027 18.3828 44.9083
CA 22.4365 3.17431 69.2082
CA -26.0479 -19.4154 30.5051
CA -32.7328 5.51488 66.5625
CA 8.69215 10.3778 62.9656
CA -15.6931 18.2997 27.65
CA -11.4647 24.0289 28.5909
CA -20.5934 5.68071 47.2876
CA 20.4117 -18.773 69.7909
CA 19.4072 -0.0170304 50.6672
CA 5.50466 20.7015 72.7585
CA -23.703 24.1199 36.6512
CA 4.79287 21.2465 40.8634
CA 23.7186 -26.7969 41.6346
CA 1.42095 22.5302 73.3899
CA -20.7769 17.0798 28.0991
CA 3.95309 5.72592 84.5644
CA -25.6708 7.52335 44.0238
CA 16.5978 -1.87795 45.8569
CA 13.5761 14.2404 28.3276
CA -32.8241 4.40636 69.1275
CA 3.31036 5.30343 45.1941
CA 5.89553 -1.16646 54.538
CA 11.0317 11.4816 51.2023
CA -10.7204 1.43895 37.6483
CA 4.89345 -18.2221 57.1211
CA -12.6826 -14.1998 44.2478
CA -14.2408 -22.4856 64.7317
CA -30.238 -19.7054 33.3102
CA 4.78153 -5.26695 85.1954
CA -3.14971 -9.87966 78.1775
CA -2.92284 -14.8968 46.6013
CA -15.1288 6.07423 40.386
CA -10.9924 -16.1257 45.7148
CA 6.0493 -3.22078 53.2724
CA -3.47504 -24.0243 86.067
CA 7.91 18.7697 73.6655
CA 6.78727 21.914 53.772
CA -0.803195 28.064 32.1957
CA 30.6038 -17.5314 45.1351
CA 11.0454 10.6386 57.2078
CA -1.86434 6.67232 47.2105
CA -0.698576 24.0279 64.2547
CA -34.22 6.10896 70.1693
CA -36.3541 17.2002 50.3511
CA 26.5895 -9.2024 73.7234
CA -24.4361 1.05575 56.4935
CA -26.4487 7.19572 79.4968
CA -35.4011 12.5772 48.2676
CA 7.48413 -22.6775 36.6147
CA 22.7935 0.339593 72.8371
CA 13.3587 16.704 82.3742
CA -28.5116 5.79793 55.8021
CA 27.3844 -8.40446 75.2092
CA 6.3389 -25.2752 65.4666
CA -24.8003 8.11177 60.5266
CA -33.1389 6.54221 52.7226
CA -3.86556 1.77588 46.055
CA 22.4344 3.62324 15.8837
CA 6.76702 -18.7419 66.1864
CA 8.7779 14.3724 52.7724
CA 5.39128 19.9267 42.4817
CA -14.9704 -17.5517 43.3852
CA -4.7488 -8.32749 89.3553
CA -27.6246 15.3131 59.5299
CA 2.19293 29.8384 29.3567
CA -3.23279 6.1835 60.0554
CA -2.03869 -5.04419 47.198
CA -13.1557 5.04484 39.7869
CA -32.5377 0.0904993 74.4349
CA 4.20072 13.5571 38.4146
CA 15.0095 11.8935 50.4554
CA 8.45752 13.7102 35.228
CA 15.5051 8.95252 41.9784
CA -0.908081 -13.7966 56.9731
CA -26.7571 12.7688 45.318
CA -14.7933 -8.76042 42.1703
CA 3.04848 -13.5596 55.785
CA 7.38824 -20.3275 46.8946
CA -3.21169 -5.74344 69.4569
CA 11.8344 14.0742 68.204
CA 4.56251 22.6322 74.8782
CA 24.7773 16.1066 30.5241
CA -5.56155 0.340899 56.7204
CA -38.1113 17.8455 49.2039
CA -10.5225 -23.6899 39.9624
CA -9.6112 9.65209 11.0692
CA 27.3536 -20.0069 38.9186
CA -32.4551 7.24964 70.3541
CA -32.2348 -4.31269 51.3202
CA -24.0726 16.4786 61.9374
CA -10.3989 -2.50282 21.6511
CA -2.47571 -9.23246 80.0738
CA -28.4081 0.0878295 69.1046
CA 27.2351 7.09493 73.0267
CA -2.02003 5.68941 40.7331
CA 0.798986 13.3392 31.449
CA -27.5372 -1.34894 54.66
CA 23.7575 0.491131 74.5835
CA -19.4187 17.5555 38.0807
CA -16.5752 -19.1358 39.0124
CA -0.953595 -11.4884 49.3312
CA -6.91245 -5.37499 40.9682
CA -0.193405 5.22923 44.0926
CA 29.9991 6.32238 35.9574
CA -2.58032 -14.2307 48.4961
CA -28.7947 -3.88362 51.0571
CA -9.49169 -0.32415 43.5478
CA 11.6081 -4.29988 82.3277
CA 20.3399 -31.9023 41.9081
CA 11.6859 4.88944 66.8675
CA -10.479 -21.0784 37.6402
CA -24.7833 12.9613 45.8113
CA -16.0207 3.91182 42.9566
CA -0.820935 -22.5386 55.5973
CA -10.9527 -12.2018 73.7346
CA 4.32121 -0.167719 54.7332
CA -19.7811 19.0671 40.8841
CA -4.26799 -19.7499 84.5915
CA 2.13427 13.0304 50.9196
CA 5.08762 22.8564 71.5138
CA 0.533728 -23.2032 85.2259
CA -23.0416 3.45443 48.0013
CA 9.33688 31.0406 30.9276
CA -21.764 6.52196 62.2164
CA -38.8066 20.8133 49.1161
CA -6.57128 19.1705 38.2259
CA -11.6151 41.7235 62.4031
CA -21.2385 7.01804 55.926
CA 13.5412 10.6447 54.0459
CA 4.26018 21.3622 35.5459
CA -21.6989 -1.28408 48.8422
CA 10.0098 15.6599 69.3554
CA 1.54717 21.4267 46.2529
CA 23.7552 15.6835 28.4267
CA -13.9081 1.02024 42.3501
CA 7.16585 -7.3098 69.014
CA 6.44061 -24.8958 55.7788
CA 17.4096 27.1476 71.9141
CA -15.7245 2.62408 73.3409
CA 16.1479 -4.37298 49.0111
CA 6.26462 8.43557 87.1594
CA 0.477106 -0.0249233 54.8135
CA -0.938385 -11.0801 52.2828
CA 11.8455 13.6004 57.3703
CA -34.2701 3.33119 71.3088
CA -8.19055 1.91162 42.5828
CA 9.31907 14.736 59.8362
CA 14.402 12.7515 61.9322
CA -8.48373 -22.9087 39.7162
CA -3.89352 -1.26937 45.9019
CA 13.1985 0.20617 34.8551
CA -30.774 -7.39313 72.4082
CA -7.32887 4.39169 46.9859
CA -14.4731 -10.2994 44.4387
CA 12.965 -1.18966 32.6459
CA -12.6631 -23.7234 36.9125
CA -33.0714 -1.02966 78.2468
CA 9.30855 -23.5978 59.3718
CA 9.6401 12.1559 54.215
CA -14.7859 26.7794 52.5229
CA 14.106 16.7448 33.5778
CA -32.2113 12.0496 46.4364
CA 1.16918 -15.0375 55.9478
CA 23.6214 7.54584 16.9083
CA -29.9514 10.5289 65.87
CA 7.55261 0.973243 67.483
CA 29.2628 -3.71117 68.0381
CA -13.4564 8.19455 76.0911
CA -33.8387 4.62191 74.0526
CA -19.7845 14.7282 53.9282
CA -32.135 4.55704 46.2517
CA -12.729 7.97671 12.0813
CA -4.14483 19.498 43.0479
CA 35.3689 -7.18565 38.5785
CA 19.8783 0.993503 25.3348
CA -13.1261 -20.5988 64.8528
CA 4.90092 25.5129 52.1587
CA -19.6482 21.1213 40.4622
CA 0.99615 -13.0792 55.6197
CA 10.5823 11.3196 62.4284
CA 3.4308 16.6343 39.9454
CA 11.0213 23.7578 68.1562
CA -20.0046 18.9371 32.5932
CA 8.64126 17.4617 56.442
CA -18.2527 17.9145 40.0274
CA 9.19374 12.4272 61.2812
CA -5.51921 -12.188 78.4241
CA -14.772 -0.0968232 39.6821
CA -15.697 -6.14985 43.6766
CA -27.2716 15.5231 50.5154
CA 17.9573 24.0515 75.034
CA -13.8381 -9.62252 38.2446
CA 20.7402 18.1832 51.7984
CA 8.68028 -21.6979 32.0335
CA 10.7747 21.4691 74.7958
CA 14.4148 9.9659 38.9212
CA 13.3892 0.783398 61.3238
CA -14.0207 4.34552 14.2751
CA 21.3656 3.01557 66.0653
CA -6.23389 -18.5981 43.5275
CA -12.8559 -10.4477 47.559
CA -5.80774 5.13565 48.4635
CA -18.1139 28.2185 52.6673
CA 12.3883 9.93363 28.4577
CA -17.2297 19.7418 30.1994
CA 20.7696 15.5167 48.7359
CA 31.4542 3.62601 57.0309
CA -31.9096 13.3489 51.9656
CA 20.8649 -5.93449 40.8909
CA -19.4125 6.02026 43.8744
CA 12.5335 11.19 39.6741
CA -4.48487 -17.2741 44.554
CA 28.6383 -21.8427 42.3295
CA 20.6238 3.15454 25.4946
CA -14.6286 0.788221 44.6934
CA -21.6868 1.62529 48.9744
CA -17.4836 21.8387 39.4794
CA -26.8243 9.18859 47.376
CA -3.04291 0.245134 43.6576
CA 22.0497 -20.3512 49.2576
CA -10.3103 -18.8477 37.8062
CA -14.12 9.8121 11.604
CA -20.3919 -0.0619301 55.5305
CA -22.823 11.3428 66.5961
CA -12.3865 -10.1614 92.0502
CA 4.20165 -17.5212 84.1724
CA -22.0407 10.4042 53.3144
CA 9.86645 10.8947 59.1253
CA -12.0883 7.52378 9.9422
CA 19.2512 -26.4208 44.4861
CA -26.4086 17.4965 43.9948
CA -8.62034 -7.03592 40.4993
CA 18.7657 -15.3997 66.6752
CA -25.5166 10.9271 59.2356
CA 7.31233 -0.484255 85.8128
CA 15.9474 0.428059 22.1486
CA 25.7392 2.77537 70.6298
CA 38.9287 -0.606533 46.4195
CA -31.0653 -0.922693 50.7907
CA -31.9256 -7.61556 70.0344
CA 21.6088 11.8693 47.868
CA -24.4193 15.395 57.8698
CA -20.4076 23.2145 36.727
CA 11.5765 18.3406 77.2014
CA -19.156 10.5217 54.8621
CA 5.19295 -11.6878 45.3029
CA -8.57413 -33.1837 44.4767
CA 10.9558 7.91299 57.6978
CA -6.21785 3.79965 60.3459
CA -22.6322 19.0267 68.4228
CA -20.7472 37.6878 46.8392
CA -13.6554 -16.5055 49.1392
CA -14.0021 2.78981 45.3724
CA 19.2805 -0.423695 24.2851
CA -6.77431 -0.424305 21.402
CA -32.3572 12.6155 43.2348
CA 24.7141 -25.9878 65.5028
CA -17.0909 9.24889 77.7427
CA -30.7457 -4.58968 58.933
CA -26.36 14.8683 41.7703
CA -16.1418 -21.6587 64.2342
CA 0.599786 -26.2574 54.9995
CA 14.1397 28.7963 69.3314
CA 16.0714 26.653 74.3549
CA -25.6481 12.1 36.3833
CA 17.4118 14.073 39.5279
CA -19.4985 19.7514 53.7011
CA 11.0042 -31.6628 61.6588
CA 9.55103 13.8036 50.577
CA 9.20699 27.3788 34.9262
CA 2.00518 12.0829 45.8532
CA 7.09045 -9.24341 69.447
CA 3.52997 -31.3794 57.0265
CA -35.5979 11.262 71.9582
CA -33.6532 6.26191 45.8699
CA 4.4043 17.7917 37.621
CA 3.00373 11.2318 43.4165
CA 3.88785 -25.0968 84.3302
CA 17.4515 -0.475534 24.1473
CA -8.60458 -3.93947 38.9229
CA -8.6804 -25.0739 39.3619
CA 6.96549 -5.68018 84.6562
CA 41.0938 7.60403 53.5066
CA -0.403958 18.9068 40.6074
CA 1.51199 17.6357 35.8878
CA -9.93159 24.5303 35.0665
CA -24.9804 7.97958 49.1947
CA -24.2263 6.36175 40.1021
CA -33.8697 8.68547 46.5319
CA 1.33553 -13.1375 52.1435
CA -34.6159 1.42567 73.2979
CA -34.732 4.89633 58.4219
CA -1.24895 -19.6849 53.4122
CA 1.62815 27.7152 30.2303
CA 9.6718 6.59782 70.5199
CA 36.4833 -0.994676 45.24
CA 1.08705 19.3237 44.7782
CA -34.7801 9.5577 49.0449
CA -27.9663 15.5236 46.1761
CA -9.41206 32.9306 51.0902
CA -22.7712 20.5064 45.4737
CA 0.628492 -14.8163 52.01
CA 6.29175 -2.48741 56.3549
CA 15.1276 6.51389 46.4245
CA 26.1864 -18.6993 49.7729
CA 4.31146 -17.6983 66.4488
CA -22.9478 6.05589 66.9529
CA 1.42926 6.76464 43.1364
CA -14.6565 -21.5608 43.3051
CA -18.8626 14.1994 34.4947
CA 2.60993 -7.14961 69.1676
CA -20.6312 11.7244 39.154
CA -25.7851 21.1322 47.0961
CA -26.5356 16.8642 51.9584
CA 19.722 -27.6839 38.533
CA -28.1563 10.6332 48.8084
CA 1.35975 -28.6219 58.5217
CA -37.5255 14.64 49.918
CA 29.6879 -9.64061 73.2195
CA 13.1222 23.0041 75.6062
CA -7.97822 -17.1648 50.6431
CA -17.9562 -21.9609 19.7337
CA 18.7153 5.99415 71.614
CA -19.7326 -0.125735 76.9102
CA 7.04295 5.2452 57.7804
CA -6.16658 -14.7667 86.9981
CA 15.8179 -13.4422 70.0378
CA 15.368 14.1836 38.7365
CA -27.2394 17.2762 37.3599
CA -22.8429 17.4522 42.8962
CA 9.06003 9.68067 54.024
CA -8.04912 -2.65245 40.3402
CA -19.9121 10.2314 71.8405
CA -20.935 16.541 38.0131
CA 4.3284 -15.7491 64.9902
CA 25.1474 -29.9689 40.6622
CA 13.9288 12.3051 64.4884
CA -21.3264 14.655 69.6946
CA 9.49329 15.0371 56.6322
CA -4.18795 -11.1473 76.4274
CA 18.2222 -13.6676 68.4198
CA 3.43449 24.5803 54.4139
CA -32.4415 -2.68128 77.5767
CA -22.3349 15.9161 45.7287
CA 0.271576 -1.56394 52.2112
CA -13.6991 44.2678 61.9542
CA 6.63363 17.2472 57.8752
CA -1.85678 -11.2191 71.905
CA 13.5277 -0.763782 60.2804
CA -18.1483 24.4685 38.3898
CA -10.6149 38.2735 61.3941
CA -21.0071 40.2645 47.4134
CA 5.63784 5.61026 83.7486
CA 7.52873 -10.9972 44.5568
CA -29.3139 11.3765 56.3197
CA -22.9182 12.2044 47.5832
CA -12.9971 -20.5452 38.9468
CA -30.0279 -3.83419 54.5392
CA 6.48099 -19.5614 35.6457
CA -21.6801 11.1736 48.7495
CA 11.0655 7.37158 55.4504
CA -30.9975 11.2844 50.5028
CA -2.00575 -27.1787 52.891
CA -10.9066 -4.22316 38.7667
CA 6.82082 18.2533 75.3897
CA -0.456997 -0.0523513 47.4114
CA -40.872 22.7117 45.8478
CA 17.886 14.1818 24.315
CA -17.4164 -1.20587 33.6652
CA -13.5941 3.90287 12.4469
CA -1.97107 -10.8329 75.9166
CA 13.732 16.7161 55.9522
CA 21.295 1.92259 72.7921
CA -20.6803 9.38131 48.2229
CA 6.17065 -18.8006 37.3024
CA 21.8988 -27.3489 39.6549
CA 6.74554 24.0309 75.1381
CA -8.47557 4.13672 41.1335
CA -22.1741 25.4756 34.2539
CA -11.7187 -14.4206 37.2325
CA -10.4781 -12.1679 77.929
CA 20.3247 4.57919 70.8372
CA -4.25895 -9.02731 81.5884
CA -5.44859 -12.3675 82.8334
CA 6.38766 3.58186 62.7519
CA -19.2391 7.58985 47.4066
CA -7.009 -18.4363 87.2538
CA -21.5271 19.7003 42.2533
CA -27.8692 -1.89217 56.3673
CA 22.1894 5.16262 72.4495
CA 20.9296 -30.0655 41.5344
CA 20.252 15.6677 28.2344
CA 11.1572 -0.775139 62.2373
CA -7.34277 6.54702 69.3411
