489

CA -3.25954 -3.83853 45.7992
CA -9.50637 -6.17707 23.311
CA -8.22351 10.2327 70.6625
CA 23.6766 -9.27418 48.3685
CA 14.921 -17.5375 88.0347
CA -11.8004 4.31128 27.2079
CA 4.18612 -16.4639 79.8394
CA 8.6539 -2.07467 51.9588
CA 23.0121 11.8909 74.5465
CA 3.15254 6.59013 88.4538
CA -6.88649 -8.0919 79.2835
CA 25.4906 -19.7317 50.2087
CA -10.7991 5.39049 32.0384
CA -16.7023 0.899749 89.0798
CA 2.05146 3.84719 84.1556
CA 8.11831 -24.3385 74.6491
CA -4.88096 -12.2376 55.7024
CA -7.93042 6.12292 35.9382
CA -16.4256 -0.498813 73.9507
CA -12.2846 16.0245 78.9528
CA 24.4616 -11.5597 47.3524
CA 2.29424 -11.9451 61.9286
CA -9.73479 0.876062 56.4034
CA 15.878 -26.6007 89.3515
CA -28.602 2.59168 75.769
CA -35.0551 -1.70431 49.1885
CA -11.4227 2.40806 44.2219
CA 3.94504 -21.4523 82.785
CA 9.301 -5.28381 57.1594
CA 10.1397 15.4166 76.4802
CA -7.90222 -14.4453 57.5914
CA -5.91632 17.4658 69.6127
CA -4.78844 -7.91962 46.9422
CA 18.8456 -18.3409 76.6414
CA 24.0366 -13.82 47.5795
CA -12.5598 11.2657 29.6692
CA -19.9089 2.77814 65.9395
CA -3.9061 14.4328 24.9457
CA 7.41739 -15.4055 86.7326
CA 14.7502 -8.37484 58.0391
CA 18.8922 -28.0001 81.9361
CA 2.9522 -13.4267 54.9684
CA 15.003 -14.7309 84.3559
CA -18.2507 -12.5739 77.1573
CA -4.51163 13.2359 86.7499
CA 8.87388 7.13774 60.1498
CA 26.0558 -12.4264 46.1925
CA -5.87452 -12.03 58.8109
CA -6.43571 21.8165 47.8165
CA -6.80853 7.60699 85.9568
CA -24.2648 2.21615 68.1018
CA -15.1903 -3.15534 63.9249
CA 13.6045 -26.0252 72.0552
CA -18.3258 -8.24196 91.6339
CA -24.8612 0.774556 74.2477
CA -8.38719 3.19302 47.8626
CA -20.9534 -5.75051 77.4377
CA -25.8702 13.1941 47.4494
CA 17.7014 -11.216 15.247
CA -11.4908 0.56395 88.1451
CA 7.4708 -12.6027 50.4622
CA 20.4119 -1.57926 65.6088
CA -6.91324 7.85969 41.303
CA -10.8145 8.60879 27.0475
CA -6.00522 -11.67 80.4536
CA -24.8884 -17.0267 57.7392
CA 15.1975 -10.7002 55.2423
CA 15.299 -4.73089 57.3001
CA 3.54717 6.29558 85.4204
CA -4.26066 4.23813 57.283
CA -27.0401 -10.6622 84.1163
CA 15.6079 -21.15 75.2361
CA 18.7127 -14.3113 69.2896
CA 10.6269 -24.5144 78.277
CA -20.5779 11.2713 83.4571
CA -7.53277 0.888501 53.5506
CA -11.9533 -2.2169 61.2391
CA -3.46486 10.7981 21.3349
CA -7.20863 17.2386 51.7254
CA -9.10304 16.1045 69.1498
CA -18.8684 11.5673 53.8598
CA -19.2584 -4.64839 94.1027
CA -27.6982 -10.6963 92.7198
CA -2.73672 10.8413 48.8193
CA -26.16 4.27878 72.9263
CA -5.71718 -3.35558 84.9298
CA 18.6107 -16.5179 86.6616
CA -8.62322 11.5164 78.0605
CA -14.7009 -6.9453 57.7665
CA 6.68177 -17.0025 70.3369
CA -10.7626 7.74437 73.1007
CA 15.7806 0.708147 51.6072
CA -9.97164 12.9786 25.3407
CA -4.99852 -2.71927 48.7689
CA -8.16844 -2.81449 51.6428
CA -3.59948 6.95457 69.2841
CA 0.683344 14.6017 70.612
CA 23.5533 12.9103 76.5503
CA -3.5492 6.02442 57.8342
CA 9.85071 3.21376 69.8333
CA 15.2733 -25.4072 80.1049
CA -32.8475 4.31973 72.2465
CA -12.6562 -5.80939 27.5818
CA -8.65963 -12.4264 74.468
CA -12.4613 -9.86975 80.1207
CA -7.33664 -5.63004 49.9532
CA -7.43607 -10.9914 82.5092
CA 2.20619 -12.6142 84.3614
CA 12.9771 -7.71862 52.0498
CA 0.779218 -3.44178 62.9592
CA 17.6931 -2.56402 61.4852
CA 14.8122 -7.09593 52.3087
CA 21.5521 -10.6081 46.1837
CA -6.59654 -12.5224 61.2667
CA -13.8324 -2.23733 51.0587
CA -18.544 7.25749 40.2564
CA 7.40542 -4.27278 59.0291
CA -20.5335 -15.2132 49.2823
CA -10.5437 10.607 84.2898
CA -18.3215 -1.66459 73.077
CA 8.48912 6.15264 58.3324
CA -18.9768 -4.12096 88.6287
CA 1.05431 -14.179 60.4566
CA -26.5771 -2.31518 70.6354
CA -19.4085 7.62985 52.8786
CA -2.88521 -12.2579 81.068
CA -25.2001 -2.26796 76.7795
CA 15.021 -20.8993 91.8866
CA -6.54802 11.9056 70.0756
CA 9.66603 11.5176 74.8039
CA 0.487551 6.15261 80.9631
CA 7.05874 2.34427 85.2821
CA 3.52466 -9.73211 85.6458
CA 12.4179 -22.9909 93.0665
CA 9.36066 9.1421 74.6867
CA 8.12339 -8.83552 51.6997
CA 4.76017 -11.8731 72.3431
CA -18.8927 1.57219 68.9641
CA 9.33652 -15.874 72.5893
CA -22.5935 -6.24781 75.2721
CA -24.7733 9.51057 47.1541
CA -7.78692 -9.01517 80.771
CA -10.9043 -3.11041 25.1532
CA 25.1058 -14.3517 44.7902
CA -16.8749 5.50984 50.3286
CA 2.15015 -0.0414959 53.574
CA 11.1789 -0.2265 58.0115
CA -27.166 -11.9978 87.6549
CA -3.78887 17.1891 79.0058
CA 23.3578 16.7251 76.7445
CA -17.5511 12.5534 45.8095
CA 0.520685 -17.3379 51.693
CA -23.3393 -19.6347 47.7838
CA -23.1176 -8.58252 50.8179
CA -21.9975 5.2954 69.65
CA -12.6307 -6.19813 52.9902
CA -26.3211 -13.5122 70.4988
CA 13.7307 -26.6226 97.2634
CA -10.6243 -11.429 79.2906
CA 19.3176 14.4514 78.1328
CA 0.736723 -0.25104 52.3613
CA 5.68018 -1.79527 51.7651
CA 5.28036 1.79618 60.0584
CA 15.4004 3.63495 56.8221
CA -17.5672 8.09213 79.7363
CA 2.00396 18.1076 70.1266
CA -6.88791 -8.57903 85.3917
CA -14.9318 10.6801 39.2758
CA -21.2946 5.42532 41.8817
CA 21.0909 -10.6115 50.8286
CA -35.5067 2.48353 70.2473
CA -12.7575 1.09144 53.3527
CA -30.9233 -10.8091 82.29
CA -13.6027 -14.1215 82.0999
CA 12.7665 -24.6448 74.0848
CA 11.4997 -8.95761 49.9032
CA -14.5104 3.34342 85.345
CA 10.893 -2.0176 52.6408
CA -13.8946 13.7369 52.177
CA -5.39024 -7.18342 81.671
CA -20.3585 0.340422 85.3091
CA 19.4173 15.5758 80.6574
CA -6.93666 13.1515 72.4422
CA 6.89503 -1.39304 59.3709
CA -25.4701 15.5173 48.3382
CA 0.867349 -21.0086 84.5792
CA -13.4601 3.29217 47.3427
CA -8.96916 -10.3325 80.3994
CA 15.0528 9.9933 82.113
CA 17.7608 -13.4934 17.4323
CA -14.6382 12.8005 85.0287
CA -9.16054 -3.86286 23.7459
CA -21.8243 8.11546 39.6908
CA 8.8427 -10.7463 53.5447
CA 3.48342 -11.7153 53.8579
CA 9.23299 3.07587 66.9115
CA 13.6957 -29.3627 18.6153
CA -12.414 13.8631 73.1865
CA -9.04264 -2.98511 65.198
CA 6.9757 8.23742 61.3738
CA -40.815 2.34993 71.9627
CA -5.13141 16.3175 80.5411
CA 18.3117 -18.4688 51.2381
CA 25.0977 11.9277 80.8524
CA 9.08665 11.0719 81.779
CA -7.23651 -4.42524 84.0856
CA -19.2535 -3.94377 73.4931
CA -12.2408 16.7675 51.3582
CA -12.5839 -20.0037 86.3122
CA -13.036 10.7063 82.9696
CA -9.25298 14.4639 37.8131
CA 14.6962 -18.8473 99.2589
CA 13.3366 -11.9911 88.0767
CA 15.9707 19.6664 81.8163
CA 27.4162 -19.7215 49.3774
CA 25.7783 -11.7233 40.975
CA 13.4319 -3.33164 62.0411
CA 10.2476 -2.06216 49.9735
CA 0.519432 -10.7271 45.1792
CA -0.690656 -11.2745 81.8512
CA -16.0916 -12.6741 48.1912
CA -23.6795 -9.54539 69.2251
CA -11.9331 -1.30012 62.8095
CA -17.7285 4.65429 52.4383
CA -12.8962 3.58229 87.5573
CA -22.551 19.5862 40.3889
CA -9.82179 -3.9791 62.9087
CA -10.2131 14.0965 39.6854
CA -13.6726 -11.4839 77.9074
CA -18.7344 11.257 78.188
CA -27.8767 -1.55239 72.7018
CA 14.2262 18.0161 76.7939
CA 11.948 -26.8948 99.3046
CA -14.772 9.0243 75.5904
CA 22.9087 -8.81988 54.4857
CA -3.65791 -1.24239 82.4235
CA 12.6173 10.5013 57.6855
CA -21.8016 -2.26702 52.1437
CA -13.2658 -11.4644 75.2683
CA 4.17832 17.5679 80.7192
CA 7.91461 16.5757 79.808
CA 15.4872 -25.5657 84.4431
CA -11.6027 0.427556 90.0872
CA -14.3569 3.55279 45.6469
CA -8.91329 13.878 83.4299
CA 5.69876 -14.003 17.2632
CA -22.2928 -13.6966 54.1746
CA -29.5392 7.19743 53.3983
CA 11.8095 -26.9151 74.7222
CA -14.1367 7.52147 79.2888
CA 24.1819 -17.5369 45.8151
CA -15.5404 -4.44661 51.0807
CA 5.75501 9.26154 82.7228
CA -5.38668 6.83 51.6506
CA -14.6218 10.7909 41.0663
CA 1.64992 -15.0063 55.6966
CA 15.8475 -1.75588 63.5032
CA -19.9809 16.1122 40.408
CA 14.5397 21.1794 80.4847
CA -19.7099 -7.05376 49.0989
CA -14.479 12.7914 72.7721
CA -15.1008 -7.60974 83.3609
CA -4.03336 3.88728 53.6801
CA 4.26214 -14.611 56.2664
CA -10.6137 19.4788 52.6839
CA 7.37215 -4.9969 54.5984
CA 13.2707 -17.1162 69.4855
CA 2.44847 -13.6277 77.1255
CA -27.7351 2.72048 73.7601
CA -1.15739 14.2605 83.3654
CA -12.3846 -5.36718 80.6844
CA -18.0293 -0.727111 89.7146
CA 16.426 20.7783 83.4163
CA -2.75252 9.9102 69.996
CA -10.0075 3.20578 60.1095
CA -11.1108 -9.02139 71.6055
CA 3.04031 -14.9531 85.0065
CA 15.4169 -8.85478 52.7933
CA 0.0450758 -2.81402 53.4965
CA -0.233053 -5.19684 55.9077
CA -18.3992 9.40969 47.8835
CA -25.2265 -10.8132 89.0385
CA 12.6217 2.00596 52.3494
CA -10.7872 13.3285 29.7377
CA -16.2685 -8.9426 56.761
CA 26.9465 -10.1362 44.7655
CA 6.22726 -8.21537 49.3912
CA -3.22082 9.83836 44.5504
CA -36.1775 0.865119 51.2687
CA 4.47522 -10.7793 58.2256
CA -1.07919 8.80116 74.9229
CA 9.19542 10.5273 76.3291
CA 19.1918 -22.9009 82.4461
CA -23.2106 -10.5633 51.096
CA -23.8404 -3.3985 76.2488
CA 13.1603 -22.4351 75.4669
CA -1.68957 -3.65233 75.7851
CA -8.68265 10.2595 65.9443
CA 25.1295 14.5523 77.2921
CA 14.594 -2.58774 58.2985
CA 16.164 -21.7507 18.1064
CA -5.65927 -5.39209 65.3439
CA 9.77659 -14.7362 54.279
CA -6.72554 10.9317 50.7876
CA 12.2508 -28.666 74.948
CA 10.9245 21.4889 80.9799
CA 10.8257 9.87308 79.4147
CA 21.1535 12.7459 76.8812
CA 14.765 -5.26968 69.2046
CA 10.3778 -5.60256 54.8623
CA -20.0577 6.7004 82.368
CA -25.8465 2.74439 76.1199
CA 7.67444 0.890075 57.0854
CA 11.1385 -26.1118 77.0831
CA 13.5037 -6.18051 58.8688
CA -15.3033 -16.8748 85.3451
CA 0.940308 -11.6194 56.3081
CA -9.02231 3.57475 52.9629
CA -21.7494 3.39183 71.989
CA -19.7656 -7.31847 73.2387
CA 23.7144 -7.12317 45.2317
CA -21.2643 -8.03464 82.3384
CA -18.7948 11.4143 84.8373
CA -20.4447 9.37807 84.4498
CA 14.2041 -26.9277 76.8407
CA 3.01002 -2.04664 78.5283
CA 26.6562 -15.4043 49.0974
CA 14.9293 -27.0197 17.7986
CA -2.66818 -12.7689 60.2587
CA -14.7198 11.7917 87.2045
CA 6.40901 -27.6877 77.6678
CA 0.826555 17.4279 72.3509
CA -7.52542 -1.28234 52.6146
CA 25.543 -17.0269 44.3665
CA -26.5282 3.00346 50.9893
CA 16.4257 -1.80899 58.5841
CA -3.83077 -11.5731 84.3827
CA -0.266589 10.6805 50.8634
CA -6.60329 9.01894 59.6363
CA -21.4692 -6.75145 70.2303
CA 11.4959 -12.4679 87.8257
CA -14.5177 -2.99657 82.203
CA 0.676191 14.2041 76.5492
CA 6.05647 -9.90548 79.4894
CA -3.71807 -15.6573 56.0449
CA 15.713 -19.9682 17.7307
CA -9.73405 8.86464 56.8428
CA -11.7458 -0.412258 59.9933
CA 4.81912 -4.8376 63.9881
CA -37.3345 3.55904 69.3084
CA 11.2984 -0.91527 55.6454
CA 6.862 1.39378 50.6404
CA -26.0308 -0.87438 50.4319
CA -13.5659 -2.35013 24.8199
CA -8.46825 15.1342 28.2862
CA 17.9236 -14.3659 43.968
CA -22.4188 12.4664 53.4077
CA -15.884 16.3449 39.8765
CA -17.255 7.57504 49.7405
CA 6.60518 -16.4626 51.0762
CA 0.63372 -8.13398 57.4081
CA 16.1195 19.4889 72.6669
CA -9.93666 7.70924 86.1814
CA -10.0282 6.20144 84.4542
CA 19.5481 -9.87098 54.3071
CA 23.7253 -22.9304 80.9321
CA 7.09687 10.6892 77.0197
CA -1.94735 13.1261 28.0605
CA 9.50524 -21.1792 84.0299
CA -5.18058 4.49797 72.1127
CA -10.0028 14.6575 76.9594
CA -8.22135 -14.5394 64.0044
CA 12.6282 -1.76292 51.8937
CA -35.8052 -2.70927 72.3607
CA -14.1649 -4.95962 79.9808
CA 9.49201 -22.5933 19.2167
CA 7.23181 9.51084 78.7476
CA -37.7685 -0.0810525 74.1897
CA 22.9689 -18.4293 47.6537
CA 15.554 -6.64314 55.3354
CA 21.6371 -17.7267 51.5978
CA -20.0264 10.1438 76.7228
CA -0.194802 -3.53358 50.1713
CA -5.35412 11.2062 47.4558
CA -2.53082 -2.79903 80.7286
CA 16.6921 -6.70952 59.005
CA 5.22642 8.62662 57.5659
CA -3.20656 -9.99571 49.5282
CA 1.32199 11.5316 59.796
CA -4.48453 7.66329 86.8758
CA -15.7052 8.05254 80.3187
CA 15.7732 2.75509 61.6626
CA -27.8286 -6.67246 81.4384
CA -15.5908 0.62164 65.4662
CA -23.1491 -8.23175 77.303
CA 24.6662 -18.2063 49.382
CA 10.7374 -7.17227 56.9655
CA -20.4151 -12.7448 73.1627
CA -12.0453 -3.23836 47.596
CA -22.3836 0.381553 55.5873
CA -10.3849 -8.58427 84.2915
CA -20.3009 -2.89312 55.5722
CA -11.8237 -9.30696 57.3163
CA -7.01581 15.2419 23.3436
CA -21.8527 8.1331 44.0607
CA 5.49741 -8.60107 85.5664
CA 3.17322 -9.49081 81.4322
CA 13.5713 -20.2637 16.2042
CA 9.28497 -8.93975 56.6145
CA -34.1782 6.12346 69.0984
CA 12.9732 -21.8074 17.053
CA 15.7142 -28.4358 84.5825
CA -5.00648 7.4462 72.7732
CA 24.3585 -14.8922 50.2848
CA 8.31142 -23.1961 72.4311
CA 16.3775 -18.0732 98.6572
CA -15.6343 -18.6258 87.7561
CA 17.6779 21.7908 75.3773
CA -22.2492 -11.8912 85.2403
CA -5.43095 -11.8873 67.2447
CA 0.499926 -8.49304 61.1293
CA -33.4695 -0.634826 50.6128
CA 7.14078 4.12695 47.7278
CA -18.0589 -8.57953 80.2272
CA -15.5268 -4.76009 53.5792
CA 10.395 -11.0915 52.5502
CA -17.6759 7.36759 75.5935
CA -16.9356 4.44115 85.0059
CA 18.1976 19.0108 80.4789
CA 13.2941 12.8957 58.6472
CA 9.7088 -12.9582 87.08
CA 8.70882 3.66724 62.2694
CA -2.16956 -10.0464 55.8327
CA -3.07643 -9.89117 77.7719
CA -12.133 0.871044 27.696
CA -27.0182 -3.91393 69.0948
CA 17.2747 -7.91228 56.8539
CA 2.91511 11.2073 75.9369
CA -2.89756 -15.1813 83.4045
CA -16.0874 8.14855 53.5344
CA -21.7198 -4.55364 86.9349
CA -2.40567 -9.0719 81.2041
CA -20.5278 -6.3989 51.3024
CA 11.0448 -21.0108 81.5743
CA 12.415 -9.56614 56.1197
CA -6.05045 4.63553 52.0308
CA -4.52336 -4.40712 86.7124
CA -0.0313373 11.7113 19.0564
CA -9.98647 21.8852 50.9417
CA -27.7621 -9.59073 90.831
CA -5.63026 -8.04864 83.4
CA 9.22385 0.00498482 47.5299
CA 11.0791 -4.24396 59.3446
CA -5.11822 -5.02576 83.0137
CA -18.5515 3.60192 87.4162
CA 19.4351 -5.91666 56.3588
CA 21.4365 -13.0054 50.149
CA -42.6045 0.464707 68.363
CA 17.3918 -4.50755 67.8865
CA 18.1508 -15.0216 50.0417
CA -9.75963 -0.791773 60.7111
CA -1.97097 11.3862 66.0111
CA -15.4764 -2.32997 55.0672
CA 3.88709 -9.4103 87.989
CA -4.95382 5.07157 32.252
CA -23.6618 -5.01548 47.2934
CA -7.4424 20.299 50.6843
CA 1.13101 -8.10696 64.8243
CA -14.5491 11.8175 78.2658
CA 5.5495 -13.8098 71.2782
CA 0.283089 -1.26671 81.2052
CA 24.4496 -9.81083 44.0514
CA -33.9924 4.33833 53.6676
CA -13.8887 15.1652 74.173
CA 15.5707 -12.2035 90.8686
CA 15.0541 -23.2874 96.1186
CA 15.2107 -3.19022 64.5938
CA -28.0979 -13.7356 60.8477
CA -3.66066 8.41615 74.6377
CA -7.75661 16.2263 80.7129
CA -20.5863 -3.41262 60.4196
CA 16.7899 -14.747 70.7393
CA 20.1572 -11.3299 16.7405
CA -24.1204 -12.0005 85.3862
CA 20.3163 18.2069 75.817
CA -3.57739 -15.9109 54.0317
CA -5.31475 11.4081 68.8477
CA -8.03957 -13.0532 65.6752
CA 10.6321 0.696205 50.4072
