489

CA -1.66541 8.54146 45.1434
CA -21.4768 1.95174 53.2991
CA -19.4638 19.0423 38.4262
CA -11.4922 6.30963 71.3725
CA 14.921 -17.5375 88.0347
CA -11.8004 4.31128 27.2079
CA 4.18612 -16.4639 79.8394
CA -9.24806 -0.496388 92.5748
CA 23.0121 11.8909 74.5465
CA -14.289 0.861621 71.1702
CA -6.88649 -8.0919 79.2835
CA -3.19379 9.64155 78.1957
CA -10.7991 5.39049 32.0384
CA -16.7023 0.899749 89.0798
CA -20.5534 -13.3167 52.3009
CA -4.80432 -12.6516 80.5157
CA 1.25779 -15.9189 83.6637
CA -7.93042 6.12292 35.9382
CA -3.39898 6.05091 30.999
CA -0.29145 -10.3422 63.7429
CA 24.4616 -11.5597 47.3524
CA 8.02915 -3.95476 51.9679
CA -9.73479 0.876062 56.4034
CA 11.023 1.54539 52.0033
CA -4.94371 -7.94897 80.1469
CA -35.0551 -1.70431 49.1885
CA -12.3371 -5.04852 82.4593
CA 3.94504 -21.4523 82.785
CA -9.30738 18.0712 39.9985
CA 10.1397 15.4166 76.4802
CA -22.0832 -8.0551 80.9437
CA 22.6553 19.6864 73.5572
CA -0.988406 7.55933 42.6346
CA -29.3625 -9.15728 81.0873
CA -9.96874 8.12926 40.1787
CA -12.5598 11.2657 29.6692
CA 20.7936 21.8426 75.465
CA -2.16769 6.73546 22.2451
CA -21.4874 -5.31516 47.8085
CA 14.7502 -8.37484 58.0391
CA -3.96562 15.2072 19.8937
CA 4.51502 -1.90407 58.8288
CA 15.003 -14.7309 84.3559
CA -18.2507 -12.5739 77.1573
CA -9.52814 9.57203 76.3094
CA 8.87388 7.13774 60.1498
CA 3.68808 2.64587 84.6537
CA -5.87452 -12.03 58.8109
CA -6.43571 21.8165 47.8165
CA 4.47945 7.83667 59.4884
CA 21.1162 -20.7599 47.1762
CA -21.058 -5.26052 75.9801
CA 13.6045 -26.0252 72.0552
CA -18.3258 -8.24196 91.6339
CA -9.98467 2.30677 69.421
CA -22.9542 -3.91172 56.9437
CA -7.22128 5.40844 52.7853
CA 0.870138 -3.52256 52.5699
CA -27.0102 -9.65232 87.9256
CA -11.4908 0.56395 88.1451
CA 4.80324 0.335673 44.2119
CA 20.4119 -1.57926 65.6088
CA -18.0522 6.06351 78.6668
CA -11.2804 3.56916 33.6563
CA 4.00331 8.1191 86.209
CA -24.8884 -17.0267 57.7392
CA -23.245 -16.0751 72.727
CA 3.44695 8.85687 89.0054
CA 3.54717 6.29558 85.4204
CA -3.57334 8.95924 56.3126
CA -27.0401 -10.6622 84.1163
CA -5.23713 -0.151905 66.3191
CA -27.4228 -12.6859 88.1366
CA 10.6269 -24.5144 78.277
CA -20.3193 -13.0221 81.474
CA -10.9553 -4.22261 51.6742
CA 2.67739 -13.7262 57.9105
CA -3.46486 10.7981 21.3349
CA 5.28882 6.37012 61.3418
CA 22.522 -6.74417 49.2467
CA -18.8684 11.5673 53.8598
CA 20.4031 -1.8899 69.3583
CA -27.6982 -10.6963 92.7198
CA -2.73672 10.8413 48.8193
CA -2.79737 12.7376 79.6635
CA 2.43914 13.1608 71.4876
CA -22.0677 -9.26768 79.4811
CA -7.12566 -5.13356 27.6226
CA 3.27842 -14.4962 80.7548
CA 23.9846 11.6569 77.8695
CA -4.498 12.9119 47.6289
CA -9.42259 2.8025 83.9616
CA 22.7576 -22.8749 49.6221
CA -23.3261 4.4685 46.8605
CA -8.16844 -2.81449 51.6428
CA -32.5065 -0.809727 53.329
CA 0.683344 14.6017 70.612
CA -12.8749 4.07222 25.6911
CA -20.6939 -1.37051 56.7842
CA -15.9329 2.52993 52.224
CA -22.7788 -18.3959 73.163
CA -32.8475 4.31973 72.2465
CA 12.9001 -12.2456 82.2209
CA 1.01457 6.94208 51.0118
CA -12.4613 -9.86975 80.1207
CA -7.33664 -5.63004 49.9532
CA 5.88051 -3.74918 49.7236
CA 2.20619 -12.6142 84.3614
CA -18.8065 5.25563 43.2843
CA 0.779218 -3.44178 62.9592
CA -21.3739 -10.9764 93.668
CA -0.383619 -14.6065 56.103
CA 21.5521 -10.6081 46.1837
CA -6.59654 -12.5224 61.2667
CA -13.269 5.88929 53.6936
CA -18.544 7.25749 40.2564
CA -11.2259 4.33388 84.8539
CA -9.30411 7.14222 75.7637
CA -16.6831 -6.13187 55.6991
CA 8.63443 12.5304 72.5374
CA 1.92116 -0.180992 50.9369
CA -18.9768 -4.12096 88.6287
CA 1.05431 -14.179 60.4566
CA 17.6822 -20.175 76.3093
CA -36.5107 4.34396 50.6848
CA -20.0313 5.34484 78.0218
CA -25.2001 -2.26796 76.7795
CA 15.021 -20.8993 91.8866
CA 0.135715 10.0801 85.3079
CA 9.66603 11.5176 74.8039
CA 2.45827 -13.5521 53.1774
CA 7.05874 2.34427 85.2821
CA 27.2443 13.5044 82.0928
CA 12.4179 -22.9909 93.0665
CA -6.14993 -5.94072 48.5846
CA -9.98685 3.09181 81.5565
CA 4.76017 -11.8731 72.3431
CA -6.66653 1.80387 34.3153
CA 9.33652 -15.874 72.5893
CA -14.7042 -11.9164 71.2054
CA -24.5746 -1.83342 78.892
CA -10.6654 -3.01305 50.0575
CA -10.9043 -3.11041 25.1532
CA -18.9499 -2.0759 49.3343
CA -17.7212 -2.21906 80.854
CA -8.09485 8.98322 64.8636
CA 11.1789 -0.2265 58.0115
CA 7.82849 4.999 48.9126
CA -17.5094 8.64453 84.4993
CA 3.95335 -13.0995 85.3946
CA 21.3614 19.8625 71.9576
CA -18.9733 -18.4712 71.8033
CA 21.8848 18.275 77.6391
CA -23.1176 -8.58252 50.8179
CA 1.07434 -6.08995 57.9956
CA -12.6307 -6.19813 52.9902
CA 11.8163 -20.526 77.298
CA -25.2351 -5.24511 71.205
CA -18.1595 12.5537 37.9496
CA -11.77 14.3814 28.4135
CA -4.55562 17.1488 23.8426
CA -13.6658 2.28003 69.4386
CA 5.28036 1.79618 60.0584
CA -14.908 -17.7459 90.3982
CA -17.5672 8.09213 79.7363
CA -3.11874 13.5819 46.515
CA -6.88791 -8.57903 85.3917
CA -14.9318 10.6801 39.2758
CA -21.2946 5.42532 41.8817
CA 1.50198 14.8012 74.4772
CA 4.44816 5.41923 86.7335
CA -17.9864 2.98083 94.2879
CA -9.40854 -4.8607 52.6475
CA -13.6027 -14.1215 82.0999
CA 3.04153 16.3342 74.5021
CA -28.4877 -15.1878 92.475
CA -14.5104 3.34342 85.345
CA -11.7381 3.28216 61.7361
CA -13.8946 13.7369 52.177
CA 22.0923 21.9988 79.9708
CA -19.1517 7.78818 78.8688
CA 19.4173 15.5758 80.6574
CA -6.93666 13.1515 72.4422
CA -19.9979 -16.539 73.232
CA -1.96064 12.0922 30.9069
CA -13.3702 11.2762 91.0276
CA -13.2068 5.39843 76.5692
CA 14.2848 -24.6252 91.8436
CA 16.0986 -22.4968 79.9838
CA 17.7608 -13.4934 17.4323
CA -14.6382 12.8005 85.0287
CA -21.5204 4.21528 47.4122
CA -2.38387 15.3091 42.1159
CA 8.8427 -10.7463 53.5447
CA -9.15153 18.8643 42.109
CA -10.5877 12.4799 90.0483
CA -0.632862 17.2584 69.8566
CA -11.2684 -0.295407 26.1423
CA -9.04264 -2.98511 65.198
CA 6.9757 8.23742 61.3738
CA -0.794464 17.2091 39.7995
CA 11.945 0.595508 54.4023
CA 18.3117 -18.4688 51.2381
CA -8.63449 21.3449 46.6035
CA -27.3575 -5.41879 79.1788
CA 14.2428 2.96499 53.4715
CA 0.423669 13.4421 60.7297
CA -12.2408 16.7675 51.3582
CA -29.0558 -0.549515 73.1027
CA 19.4435 -6.14111 54.431
CA 2.13907 -8.76792 70.3563
CA -12.6321 12.0636 88.7438
CA 13.3366 -11.9911 88.0767
CA -8.40157 3.39001 26.9943
CA -9.21183 -4.76906 86.8134
CA 25.7783 -11.7233 40.975
CA 13.4319 -3.33164 62.0411
CA 5.44227 20.5157 21.6728
CA 3.93362 -14.691 71.1489
CA -15.7259 4.72373 82.3702
CA -13.4308 -9.33522 75.3963
CA -6.45415 -12.1729 72.1352
CA 16.7538 -23.2901 76.2841
CA -17.7285 4.65429 52.4383
CA 17.2965 -7.95917 65.3232
CA -22.551 19.5862 40.3889
CA -9.82179 -3.9791 62.9087
CA -10.2131 14.0965 39.6854
CA -13.6726 -11.4839 77.9074
CA 11.5828 -19.987 16.8007
CA -18.5391 7.03112 73.9174
CA 14.2262 18.0161 76.7939
CA -12.6005 8.5201 37.8222
CA -14.772 9.0243 75.5904
CA -1.88482 11.5195 25.5239
CA -13.3518 10.9788 71.9804
CA 12.6173 10.5013 57.6855
CA 10.2146 -6.68883 62.6993
CA -9.98763 6.64193 23.5262
CA -23.2685 -10.4439 90.3287
CA 6.49121 -17.337 79.3559
CA 15.4872 -25.5657 84.4431
CA -32.5159 0.690009 44.8748
CA -14.3569 3.55279 45.6469
CA -4.54345 -6.56865 55.001
CA 5.69876 -14.003 17.2632
CA -22.2928 -13.6966 54.1746
CA -29.5392 7.19743 53.3983
CA -26.7899 -13.4028 94.4247
CA -8.93847 6.94759 55.0999
CA 24.1819 -17.5369 45.8151
CA 23.3978 -9.10067 46.5824
CA -9.7454 1.23977 64.0873
CA -5.8209 19.8137 46.6518
CA -14.6218 10.7909 41.0663
CA 20.133 -11.487 42.4865
CA -6.33008 9.25992 86.8504
CA 19.6997 21.5751 72.9129
CA 16.7402 17.91 79.0915
CA -9.79481 14.254 41.5541
CA -14.479 12.7914 72.7721
CA 1.29311 11.7028 69.9964
CA 15.8783 -12.9151 80.5444
CA -0.219506 8.78429 47.366
CA -11.7874 0.0401163 92.913
CA 4.748 16.2708 22.8519
CA 13.2707 -17.1162 69.4855
CA -2.89838 -14.6451 80.5677
CA -27.7351 2.72048 73.7601
CA -24.0706 6.56099 42.4623
CA -12.3846 -5.36718 80.6844
CA -18.0293 -0.727111 89.7146
CA 10.1475 10.4851 83.4755
CA -19.5832 3.00093 77.9482
CA -10.0075 3.20578 60.1095
CA -11.1108 -9.02139 71.6055
CA 10.5279 -31.0875 74.9302
CA 15.4169 -8.85478 52.7933
CA -7.72969 4.64779 34.1035
CA -0.233053 -5.19684 55.9077
CA -16.3675 4.12265 76.2078
CA -25.2265 -10.8132 89.0385
CA 8.00511 1.07672 60.7929
CA -10.7872 13.3285 29.7377
CA -10.1052 -0.410774 52.3493
CA 26.9465 -10.1362 44.7655
CA 7.83313 -10.6965 60.2416
CA -3.22082 9.83836 44.5504
CA 18.5098 -8.29225 71.1044
CA 4.47522 -10.7793 58.2256
CA -1.07919 8.80116 74.9229
CA -24.5725 -9.91897 50.4483
CA 19.1918 -22.9009 82.4461
CA -23.2569 -6.31678 81.0757
CA 12.3814 0.727152 63.5716
CA 13.1603 -22.4351 75.4669
CA -1.68957 -3.65233 75.7851
CA 12.4016 -5.00401 57.8138
CA -11.7277 -6.86432 60.4261
CA 12.4497 -2.96377 59.6129
CA -10.8974 -1.63765 58.1595
CA -15.0366 7.15131 87.0576
CA 10.6295 -6.67623 52.0592
CA -14.1981 3.97212 72.2045
CA 12.2508 -28.666 74.948
CA 19.9261 -3.71002 58.4033
CA 18.4979 -1.58614 63.1574
CA 2.44934 -3.05433 72.8445
CA 14.765 -5.26968 69.2046
CA -4.95405 -0.963629 34.6187
CA -20.0577 6.7004 82.368
CA -11.2469 2.6499 53.7268
CA 24.2833 18.1699 73.4924
CA 11.1385 -26.1118 77.0831
CA -18.332 7.99127 50.2886
CA -15.3033 -16.8748 85.3451
CA 8.4124 6.0484 84.9165
CA -4.55407 0.735685 71.512
CA -9.72282 2.24142 48.8874
CA -5.59034 -7.2751 51.5
CA 24.3022 -15.3428 45.7249
CA -13.6143 -8.39314 51.7771
CA -21.5751 2.63924 50.3141
CA -21.8244 5.45913 44.5177
CA 14.2041 -26.9277 76.8407
CA -3.564 3.75883 73.5742
CA -20.8596 -3.20156 70.4955
CA 9.25983 -18.2392 16.9571
CA -23.6255 -10.5103 86.7831
CA -14.7198 11.7917 87.2045
CA 6.40901 -27.6877 77.6678
CA 0.826555 17.4279 72.3509
CA -7.52542 -1.28234 52.6146
CA 18.9005 -3.27352 64.0883
CA -26.5282 3.00346 50.9893
CA 0.180909 9.68032 71.3996
CA 0.904511 15.1694 26.015
CA 2.71576 -13.1114 82.6012
CA -6.60329 9.01894 59.6363
CA -21.4692 -6.75145 70.2303
CA 7.15313 -6.26264 52.1736
CA -14.5177 -2.99657 82.203
CA -40.1389 6.07155 72.6782
CA 9.27444 13.1386 82.1037
CA 19.704 -6.28936 60.5394
CA 15.713 -19.9682 17.7307
CA -9.73405 8.86464 56.8428
CA -11.7458 -0.412258 59.9933
CA 4.81912 -4.8376 63.9881
CA -37.3345 3.55904 69.3084
CA 21.5526 -15.0913 45.2414
CA 6.61654 -28.9567 81.0098
CA 22.5704 -6.42266 47.1143
CA -13.5659 -2.35013 24.8199
CA -8.46825 15.1342 28.2862
CA 7.5886 1.31433 47.2715
CA -22.4188 12.4664 53.4077
CA -15.884 16.3449 39.8765
CA -16.9912 3.36609 92.4487
CA -11.1261 8.02007 91.5508
CA 0.63372 -8.13398 57.4081
CA 16.1195 19.4889 72.6669
CA -7.37791 -5.84113 85.5838
CA -10.0282 6.20144 84.4542
CA 19.5481 -9.87098 54.3071
CA 23.7253 -22.9304 80.9321
CA 15.0118 -25.7467 75.262
CA -1.94735 13.1261 28.0605
CA 9.50524 -21.1792 84.0299
CA 5.65764 8.58972 78.6326
CA -10.0028 14.6575 76.9594
CA -8.22135 -14.5394 64.0044
CA 12.6282 -1.76292 51.8937
CA -15.072 -15.2697 71.416
CA -25.0097 -1.04076 74.7917
CA 9.49201 -22.5933 19.2167
CA 7.23181 9.51084 78.7476
CA -20.2286 6.77077 46.4238
CA -14.2119 15.7736 38.3408
CA -6.35915 12.4852 61.1988
CA -16.0811 5.30247 89.3192
CA -2.09593 9.49057 57.8449
CA -3.06724 -7.2658 81.2059
CA -5.35412 11.2062 47.4558
CA -2.53082 -2.79903 80.7286
CA 22.2559 -11.4529 52.9416
CA 5.22642 8.62662 57.5659
CA -6.99309 11.0074 36.1111
CA 9.30075 -19.1443 80.8936
CA 16.1286 -3.22164 59.7752
CA -15.7052 8.05254 80.3187
CA -19.0366 -14.1009 80.19
CA -27.8286 -6.67246 81.4384
CA -15.5908 0.62164 65.4662
CA -20.8718 10.2772 86.5865
CA 5.84797 -4.58536 75.2197
CA 10.7374 -7.17227 56.9655
CA 0.133666 14.3455 76.3277
CA 2.21263 -11.4626 68.6643
CA 5.15733 -17.117 84.4705
CA -21.0583 11.571 54.8061
CA -20.3009 -2.89312 55.5722
CA -11.8237 -9.30696 57.3163
CA -7.01581 15.2419 23.3436
CA -21.8527 8.1331 44.0607
CA 5.49741 -8.60107 85.5664
CA -13.1367 -5.82501 76.5338
CA 0.322768 -0.471798 48.8606
CA 21.0766 -22.4563 51.2014
CA -34.1782 6.12346 69.0984
CA 12.9732 -21.8074 17.053
CA 15.7142 -28.4358 84.5825
CA -5.00648 7.4462 72.7732
CA 13.2462 14.0401 79.7911
CA -27.0422 3.09322 71.6347
CA 16.3775 -18.0732 98.6572
CA -15.6343 -18.6258 87.7561
CA 17.0567 22.8639 69.7279
CA -22.2492 -11.8912 85.2403
CA -5.43095 -11.8873 67.2447
CA -7.38881 -2.24207 59.0038
CA -10.9682 16.2051 41.0088
CA 5.91727 -13.8638 87.9655
CA 6.78061 -24.3163 79.006
CA -15.5268 -4.76009 53.5792
CA 10.395 -11.0915 52.5502
CA -20.5592 2.77865 81.9338
CA 4.18397 0.954997 63.2247
CA -8.12833 11.5967 73.3305
CA 13.2941 12.8957 58.6472
CA 9.7088 -12.9582 87.08
CA 12.1049 -7.56728 87.5464
CA 4.18156 -3.87579 66.3238
CA 14.3848 -2.02655 60.0995
CA -12.133 0.871044 27.696
CA 11.7084 1.45436 60.7054
CA -4.65662 -1.86804 51.464
CA 2.91511 11.2073 75.9369
CA -2.89756 -15.1813 83.4045
CA 3.97532 -0.274176 67.7635
CA -6.83995 6.3064 85.1626
CA -4.83001 7.7912 49.5112
CA -10.8065 8.38176 34.2444
CA 11.0448 -21.0108 81.5743
CA -12.1548 5.72867 47.591
CA -9.13509 9.89952 72.3234
CA 9.73997 -25.2848 17.7168
CA -0.0313373 11.7113 19.0564
CA -20.0912 -9.58607 79.9881
CA -27.7621 -9.59073 90.831
CA 22.2987 14.3401 75.7364
CA 9.22385 0.00498482 47.5299
CA 11.0791 -4.24396 59.3446
CA -5.11822 -5.02576 83.0137
CA -7.45105 9.31276 68.9568
CA 19.4351 -5.91666 56.3588
CA -2.31844 -2.11025 37.5862
CA -9.24944 17.3108 80.6937
CA 17.3918 -4.50755 67.8865
CA 1.05912 8.5632 87.811
CA -9.75963 -0.791773 60.7111
CA -1.97097 11.3862 66.0111
CA -8.99851 15.3673 79.4287
CA 3.88709 -9.4103 87.989
CA -4.95382 5.07157 32.252
CA 13.5832 2.67353 51.5522
CA -7.4424 20.299 50.6843
CA -8.0049 -4.36264 62.7099
CA 7.97545 2.58157 45.464
CA 5.5495 -13.8098 71.2782
CA -13.5426 4.85789 85.831
CA 5.51956 -4.07997 55.8982
CA -33.9924 4.33833 53.6676
CA 2.22327 9.65759 84.556
CA 16.117 -18.1212 71.018
CA 15.0541 -23.2874 96.1186
CA -16.001 9.51189 37.1561
CA -5.37905 6.30286 55.0816
CA 11.7082 1.53199 58.2678
CA -1.55097 21.9251 38.3396
CA 5.80754 6.21656 54.4395
CA 22.4781 -13.7917 51.7361
CA -11.0604 -5.23845 77.6657
CA -24.1204 -12.0005 85.3862
CA 20.3163 18.2069 75.817
CA 3.78658 -9.83666 82.7526
CA -5.31475 11.4081 68.8477
CA -1.02707 0.557817 36.1046
CA -12.1193 -11.733 68.8116
