489

CA -6.46151 12.4413 63.9939
CA 2.24274 -5.53386 63.6821
CA 3.0725 0.278914 48.6581
CA -11.4922 6.30963 71.3725
CA 14.921 -17.5375 88.0347
CA -11.8004 4.31128 27.2079
CA 4.18612 -16.4639 79.8394
CA 17.2093 18.3279 82.4551
CA 14.5097 2.72539 49.7986
CA -14.289 0.861621 71.1702
CA -6.88649 -8.0919 79.2835
CA -0.425397 5.74609 79.0872
CA -10.7991 5.39049 32.0384
CA 4.27934 10.734 58.2939
CA -17.2313 10.9486 39.7027
CA -4.80432 -12.6516 80.5157
CA 5.99764 -2.71153 66.7229
CA -4.86926 4.66791 71.2801
CA -8.05837 12.9075 68.0177
CA -0.29145 -10.3422 63.7429
CA -21.0738 10.568 86.7057
CA -8.38792 9.46559 89.7087
CA 0.383292 -5.70861 65.7584
CA 11.023 1.54539 52.0033
CA -20.2797 7.52282 87.3384
CA -35.0551 -1.70431 49.1885
CA -8.37111 -7.98165 64.7329
CA -2.05636 -9.21573 64.2769
CA -15.9582 8.52759 74.1764
CA 12.14 5.56105 50.4791
CA 10.9142 -1.04933 52.7059
CA -14.3471 -4.32253 69.6926
CA 4.18233 -5.50894 68.1304
CA -29.3625 -9.15728 81.0873
CA -15.6005 13.4151 40.0568
CA -8.82424 -12.7355 82.9173
CA 8.63063 8.49905 63.8494
CA -2.16769 6.73546 22.2451
CA 17.521 -7.79302 52.117
CA -6.17435 13.5408 46.9033
CA -3.96562 15.2072 19.8937
CA 17.1525 -10.6978 86.8969
CA 1.69038 8.71997 76.6897
CA -18.2507 -12.5739 77.1573
CA -18.4796 -3.71388 60.3873
CA 8.87388 7.13774 60.1498
CA -0.272282 7.19185 31.4909
CA 22.1978 11.3178 80.1698
CA 23.156 -10.2351 48.531
CA -3.07917 10.9383 17.5383
CA 21.1162 -20.7599 47.1762
CA 10.8478 -10.4572 51.389
CA 13.6045 -26.0252 72.0552
CA -18.3258 -8.24196 91.6339
CA 10.5553 13.579 77.6535
CA -22.9542 -3.91172 56.9437
CA 6.9767 4.34924 49.9427
CA -6.67433 6.52951 56.3752
CA 15.5243 -4.12886 65.9231
CA -18.5374 7.66685 47.5547
CA 4.80324 0.335673 44.2119
CA -13.9504 3.71402 31.1448
CA -11.2158 -4.23158 62.4374
CA -28.506 -9.49937 90.8197
CA -10.3 -3.06256 77.8872
CA -24.8884 -17.0267 57.7392
CA -23.245 -16.0751 72.727
CA 9.33447 -10.6673 82.6413
CA 3.54717 6.29558 85.4204
CA -22.2264 -2.33187 57.6508
CA -24.8204 -17.4142 68.8
CA -5.23713 -0.151905 66.3191
CA 12.8296 -1.06971 50.5493
CA -16.1347 4.9748 86.1085
CA -20.3193 -13.0221 81.474
CA -10.9553 -4.22261 51.6742
CA 5.70926 -18.4048 55.872
CA -23.1158 -8.84319 83.3157
CA -13.209 2.16059 66.5182
CA 9.35561 5.05419 47.5116
CA -18.8684 11.5673 53.8598
CA -23.5118 -4.13772 58.7698
CA -27.6982 -10.6963 92.7198
CA -3.61641 11.8924 72.7883
CA 21.7306 -23.8828 84.272
CA 3.60947 -10.3364 73.1457
CA -22.0677 -9.26768 79.4811
CA -22.9987 -13.5045 71.7741
CA -12.3556 -1.54152 56.1108
CA 23.9846 11.6569 77.8695
CA -4.498 12.9119 47.6289
CA -3.1424 8.43321 63.3133
CA 7.95356 -25.5858 74.7533
CA 6.40443 6.69049 86.8556
CA -8.16844 -2.81449 51.6428
CA -32.5065 -0.809727 53.329
CA -27.5279 -11.7238 81.5712
CA 7.7342 -7.13547 65.5534
CA 4.69625 -4.90962 63.7675
CA 6.04398 -1.94543 69.3131
CA -22.7788 -18.3959 73.163
CA -32.8475 4.31973 72.2465
CA -12.1815 -9.91748 54.3949
CA -14.217 -0.628727 26.5969
CA -12.4613 -9.86975 80.1207
CA 14.7816 -7.62242 49.8562
CA 5.88051 -3.74918 49.7236
CA -1.73397 -0.0511153 61.7998
CA 18.784 -4.08807 65.8133
CA -11.6997 11.1152 50.4116
CA -2.5576 4.02726 27.5901
CA -0.383619 -14.6065 56.103
CA 21.5521 -10.6081 46.1837
CA -6.59654 -12.5224 61.2667
CA 3.34268 9.49571 59.2366
CA -18.544 7.25749 40.2564
CA 14.7459 -2.5242 63.1658
CA -21.5047 -17.5511 71.5904
CA -16.6831 -6.13187 55.6991
CA -3.33087 6.67006 54.8985
CA 16.7125 19.2116 74.8774
CA -18.9768 -4.12096 88.6287
CA 12.4324 -7.9022 54.9178
CA 7.37296 -3.94172 71.0371
CA -20.4971 -16.4019 53.6115
CA -24.4318 -10.967 93.7384
CA 22.9365 -11.9508 49.3833
CA 15.021 -20.8993 91.8866
CA -5.24748 -12.5598 76.6116
CA 5.65781 5.08073 62.6906
CA 12.9039 0.446314 60.9044
CA -8.57922 4.13792 33.7837
CA 3.45214 -8.79664 83.1614
CA 12.4179 -22.9909 93.0665
CA 7.86206 -4.28728 69.3263
CA -9.98685 3.09181 81.5565
CA 4.76017 -11.8731 72.3431
CA -6.66653 1.80387 34.3153
CA 9.33652 -15.874 72.5893
CA -14.7042 -11.9164 71.2054
CA -24.5746 -1.83342 78.892
CA 2.45405 9.07084 60.9826
CA -10.9043 -3.11041 25.1532
CA -18.9499 -2.0759 49.3343
CA -17.7212 -2.21906 80.854
CA 8.48503 9.06192 52.5142
CA 11.1789 -0.2265 58.0115
CA 8.39085 9.55936 73.7132
CA 6.73273 18.5608 19.8283
CA -14.6066 -3.2103 59.2964
CA -5.18133 1.37885 31.0407
CA -18.9733 -18.4712 71.8033
CA 21.8848 18.275 77.6391
CA 4.44357 -27.9133 79.1697
CA 1.07434 -6.08995 57.9956
CA -12.6307 -6.19813 52.9902
CA -1.13049 15.1263 19.4874
CA 15.1851 -10.2403 16.2761
CA -18.1595 12.5537 37.9496
CA 6.45755 -12.0164 64.1916
CA 2.56743 -11.8797 75.545
CA -13.6658 2.28003 69.4386
CA 12.5485 10.8151 50.6162
CA -14.908 -17.7459 90.3982
CA 3.55355 -10.1835 85.6833
CA -3.11874 13.5819 46.515
CA -6.88791 -8.57903 85.3917
CA 5.54252 9.51888 80.8345
CA -21.2946 5.42532 41.8817
CA 1.50198 14.8012 74.4772
CA 16.6889 5.58883 52.0681
CA 1.33965 -16.1073 56.3241
CA -15.1962 -6.34603 50.6896
CA -13.6027 -14.1215 82.0999
CA 21.941 -21.6679 53.7799
CA -12.8895 -10.7693 70.1302
CA 3.04716 1.53128 51.0898
CA -11.7381 3.28216 61.7361
CA -13.8946 13.7369 52.177
CA 22.0923 21.9988 79.9708
CA 12.9383 -2.94857 65.1889
CA -14.2104 16.7398 47.259
CA -6.93666 13.1515 72.4422
CA 1.50187 -9.11851 65.7468
CA -1.96064 12.0922 30.9069
CA -3.81567 18.7572 21.0645
CA 3.61864 -14.4173 83.4713
CA -0.93463 9.29902 57.9329
CA -18.1744 -9.71077 83.3209
CA 5.48364 -11.5119 56.5
CA 1.93397 1.20267 66.5424
CA -9.33831 -6.94511 27.7742
CA -2.38387 15.3091 42.1159
CA 1.87233 2.59062 67.7237
CA -9.15153 18.8643 42.109
CA -10.5877 12.4799 90.0483
CA -0.632862 17.2584 69.8566
CA 1.51854 -3.65697 67.2807
CA -8.74294 3.46566 83.4224
CA 6.9757 8.23742 61.3738
CA -0.794464 17.2091 39.7995
CA -2.93654 -15.6404 58.5137
CA 13.5165 -15.1346 91.1742
CA -8.63449 21.3449 46.6035
CA -27.3575 -5.41879 79.1788
CA 6.73453 -22.8786 82.2195
CA 24.2011 -9.31291 42.3957
CA 22.7073 -19.6179 49.9032
CA -1.27453 6.11555 74.3921
CA -9.311 15.609 29.9197
CA 22.2945 -25.2595 82.903
CA -15.1804 -9.62177 49.7771
CA 13.3366 -11.9911 88.0767
CA -8.40157 3.39001 26.9943
CA -9.21183 -4.76906 86.8134
CA -7.69887 6.90311 69.8768
CA 13.4319 -3.33164 62.0411
CA -16.4058 4.2351 83.4719
CA 3.93362 -14.691 71.1489
CA 13.522 -1.49403 57.0017
CA -10.5159 1.169 74.0776
CA -27.3688 4.15559 55.4532
CA 12.7892 -14.2869 94.1748
CA 23.1044 -1.88777 62.381
CA 17.2965 -7.95917 65.3232
CA -22.551 19.5862 40.3889
CA -24.7097 -7.81465 74.5403
CA -10.2131 14.0965 39.6854
CA 11.9764 8.44786 55.5445
CA 11.5828 -19.987 16.8007
CA -1.24604 15.6544 67.9437
CA 14.2262 18.0161 76.7939
CA -12.6005 8.5201 37.8222
CA -14.772 9.0243 75.5904
CA -1.88482 11.5195 25.5239
CA 9.07744 -27.8458 78.9535
CA 12.6173 10.5013 57.6855
CA 10.2146 -6.68883 62.6993
CA 1.11887 0.588844 74.523
CA -4.42363 -3.77208 67.6328
CA 3.07142 11.1142 20.0347
CA -20.3796 8.5068 53.1631
CA 13.6653 -5.82898 59.6728
CA -14.3569 3.55279 45.6469
CA 14.4886 -13.6541 77.7726
CA -28.0375 3.22211 47.6504
CA -22.2928 -13.6966 54.1746
CA -29.5392 7.19743 53.3983
CA 15.3251 -20.8128 86.9165
CA -0.328896 -15.906 58.8807
CA 24.1819 -17.5369 45.8151
CA -4.49594 14.3278 44.7984
CA -9.7454 1.23977 64.0873
CA -24.5436 -9.40384 94.873
CA 16.384 -2.63229 63.992
CA -2.31159 4.9039 52.2402
CA 7.34627 6.59698 63.3111
CA 19.6997 21.5751 72.9129
CA 16.7402 17.91 79.0915
CA 7.40374 10.7875 65.8486
CA -7.75755 9.17973 61.4668
CA 1.29311 11.7028 69.9964
CA 15.8783 -12.9151 80.5444
CA -4.12486 -13.5459 83.9098
CA -11.7874 0.0401163 92.913
CA 4.748 16.2708 22.8519
CA 13.2707 -17.1162 69.4855
CA 10.8919 5.09269 61.0513
CA -27.7351 2.72048 73.7601
CA -8.63983 12.8316 32.0698
CA -12.3846 -5.36718 80.6844
CA -18.0293 -0.727111 89.7146
CA 10.1475 10.4851 83.4755
CA 1.28036 -12.0641 68.3586
CA -6.82488 -4.02125 53.3703
CA -11.1108 -9.02139 71.6055
CA -0.988611 11.5772 74.3428
CA -17.6951 -4.06954 56.8077
CA 2.34122 17.333 69.8739
CA 9.13189 7.46159 85.9764
CA -10.6544 0.625321 28.8822
CA -25.2265 -10.8132 89.0385
CA -5.34684 17.8666 39.667
CA 3.47952 -3.59049 43.792
CA -12.4621 -9.59835 62.6776
CA 26.9465 -10.1362 44.7655
CA -2.4795 9.5045 60.1628
CA 15.1104 9.21341 57.0523
CA -10.6429 6.39776 76.0793
CA 18.2606 -16.0811 75.7119
CA -19.3993 -11.4311 54.9564
CA -24.5725 -9.91897 50.4483
CA 22.5304 -2.87367 49.0351
CA -23.2569 -6.31678 81.0757
CA 12.3814 0.727152 63.5716
CA 13.1603 -22.4351 75.4669
CA 6.44416 -22.2763 79.2777
CA -22.3353 -13.6032 86.0038
CA -8.47283 6.30668 63.8006
CA 12.4497 -2.96377 59.6129
CA 14.6247 10.5095 53.4572
CA 23.3588 -8.81563 52.3039
CA 10.6295 -6.67623 52.0592
CA 5.54371 -13.2403 82.647
CA 12.2508 -28.666 74.948
CA 19.9261 -3.71002 58.4033
CA 24.6869 -10.3523 47.4496
CA 2.44934 -3.05433 72.8445
CA 9.18133 -22.5264 87.8498
CA -4.95405 -0.963629 34.6187
CA -20.0577 6.7004 82.368
CA 3.78187 17.6514 79.4584
CA 4.80998 -13.487 88.4835
CA 11.1385 -26.1118 77.0831
CA -18.332 7.99127 50.2886
CA -15.3033 -16.8748 85.3451
CA 8.4124 6.0484 84.9165
CA -4.55407 0.735685 71.512
CA 0.756952 -4.85751 72.4063
CA -24.1725 -4.72605 79.1525
CA -22.0856 -7.25167 83.0895
CA -21.3973 -11.0185 52.7475
CA -21.5751 2.63924 50.3141
CA 1.92645 -1.24523 61.6086
CA 14.2041 -26.9277 76.8407
CA -6.55277 15.1462 40.2931
CA -1.88503 7.91881 74.3646
CA 9.25983 -18.2392 16.9571
CA 1.02855 8.12321 18.5744
CA -26.9213 -3.88962 74.7219
CA 6.40901 -27.6877 77.6678
CA 0.826555 17.4279 72.3509
CA -16.309 -15.2128 91.8262
CA -13.9914 3.32857 26.5019
CA -26.5282 3.00346 50.9893
CA 0.180909 9.68032 71.3996
CA 0.904511 15.1694 26.015
CA 2.71576 -13.1114 82.6012
CA -24.903 -5.05535 51.3855
CA -21.4692 -6.75145 70.2303
CA -14.2385 10.2842 80.116
CA -14.5177 -2.99657 82.203
CA -40.1389 6.07155 72.6782
CA 4.24745 11.9296 78.6847
CA 3.31953 -6.50119 78.5904
CA 15.713 -19.9682 17.7307
CA 5.70297 -7.74848 63.7232
CA -11.7458 -0.412258 59.9933
CA -14.1276 -6.45609 46.9313
CA -37.3345 3.55904 69.3084
CA 8.35934 9.83641 56.8769
CA 6.61654 -28.9567 81.0098
CA -20.6062 5.07865 79.2788
CA -20.4366 5.20622 48.0302
CA -8.46825 15.1342 28.2862
CA -10.1429 -2.96822 54.3667
CA 5.72272 11.3292 79.9462
CA -16.1112 -4.57422 48.4975
CA -16.9912 3.36609 92.4487
CA 14.8638 -7.98616 55.9807
CA -1.26541 0.0219774 66.7531
CA 16.1195 19.4889 72.6669
CA 6.09875 -13.8035 86.201
CA -10.0282 6.20144 84.4542
CA -10.7284 2.75968 67.7375
CA 5.79192 -10.1193 66.4453
CA 15.0118 -25.7467 75.262
CA -18.0672 17.3418 47.016
CA 9.50524 -21.1792 84.0299
CA 5.65764 8.58972 78.6326
CA -10.0028 14.6575 76.9594
CA -8.22135 -14.5394 64.0044
CA -12.4436 3.6572 89.9805
CA -15.072 -15.2697 71.416
CA -25.0097 -1.04076 74.7917
CA 9.49201 -22.5933 19.2167
CA 7.23181 9.51084 78.7476
CA 7.36896 7.01718 58.1619
CA -14.2119 15.7736 38.3408
CA -13.2411 19.9471 38.9385
CA -24.1064 -6.50519 62.2361
CA 11.4145 13.5063 83.6287
CA 1.91453 -15.4083 69.6417
CA 21.4135 -20.716 80.7847
CA -17.9961 0.0294911 50.701
CA 2.38101 -6.82554 62.3095
CA -6.30034 8.95597 51.0477
CA -11.8619 -6.84832 74.8348
CA 9.30075 -19.1443 80.8936
CA -5.88905 8.81538 89.1581
CA 10.4632 -10.2672 54.2974
CA -3.02322 -4.40181 64.8199
CA -3.6134 2.42178 63.1243
CA 6.72838 -19.6747 77.4713
CA -18.5498 1.41327 89.3099
CA -20.0833 -7.78748 82.0689
CA -8.72292 1.20628 80.2938
CA -19.0451 -2.73281 73.8325
CA -16.0173 -13.1632 74.5242
CA 24.0682 -8.20869 50.6161
CA -23.6792 0.388048 73.7384
CA 25.2942 -16.2324 50.3195
CA -11.8237 -9.30696 57.3163
CA 9.63319 2.87838 47.0436
CA 10.674 -27.6054 81.1476
CA 5.49741 -8.60107 85.5664
CA -13.1367 -5.82501 76.5338
CA -3.49771 7.91182 27.3415
CA 21.0766 -22.4563 51.2014
CA -25.4651 5.86187 42.8916
CA 12.9732 -21.8074 17.053
CA 15.7142 -28.4358 84.5825
CA -23.0002 -6.00798 51.1051
CA 13.2462 14.0401 79.7911
CA -8.19416 -0.757794 57.4973
CA 20.4398 -8.23589 43.6941
CA -10.7704 -7.69904 87.6777
CA 15.8178 -20.4388 14.9741
CA -22.2492 -11.8912 85.2403
CA -4.09949 -0.980616 36.286
CA 15.1982 12.6669 70.5192
CA -10.9682 16.2051 41.0088
CA 15.3599 2.79758 58.4675
CA 6.78061 -24.3163 79.006
CA 13.9563 10.8696 56.4626
CA 11.2232 -21.879 86.7374
CA -9.68011 2.00142 69.8083
CA -15.503 6.12291 80.5658
CA 18.5233 11.47 73.9394
CA -3.31577 9.30775 19.6428
CA -16.8677 -12.8514 82.8987
CA 12.1049 -7.56728 87.5464
CA 4.18156 -3.87579 66.3238
CA -10.7312 15.0999 86.6839
CA -12.133 0.871044 27.696
CA -16.5426 -9.11948 54.5516
CA 14.6932 10.0546 71.637
CA -17.091 3.95236 49.3836
CA -2.89756 -15.1813 83.4045
CA 3.97532 -0.274176 67.7635
CA -6.83995 6.3064 85.1626
CA -4.83001 7.7912 49.5112
CA -10.8065 8.38176 34.2444
CA 2.69377 5.45636 59.0026
CA 1.89453 -5.55791 74.2266
CA -24.2232 -1.76929 54.2287
CA 5.27144 -11.957 67.4272
CA -0.0313373 11.7113 19.0564
CA -22.8176 1.77645 80.3544
CA 12.4429 19.1892 80.3268
CA 22.2987 14.3401 75.7364
CA -6.94927 3.31086 30.232
CA 11.0791 -4.24396 59.3446
CA -5.11822 -5.02576 83.0137
CA 22.685 9.28456 74.8573
CA 19.4351 -5.91666 56.3588
CA -2.31844 -2.11025 37.5862
CA -9.24944 17.3108 80.6937
CA 7.44319 -12.0647 66.2868
CA -16.7285 10.1464 78.8217
CA 16.3316 1.98652 52.7561
CA 11.2296 -19.2712 84.5736
CA -8.99851 15.3673 79.4287
CA 8.58904 -1.07235 69.37
CA -4.95382 5.07157 32.252
CA 13.5832 2.67353 51.5522
CA 2.96033 3.48603 61.5433
CA -8.0049 -4.36264 62.7099
CA 7.97545 2.58157 45.464
CA 5.5495 -13.8098 71.2782
CA -13.5426 4.85789 85.831
CA -11.1487 -15.9931 86.1446
CA -33.9924 4.33833 53.6676
CA 0.902577 -12.6166 56.7103
CA -26.1537 1.87009 52.7035
CA 15.0541 -23.2874 96.1186
CA 18.0129 -11.178 51.5529
CA 19.3044 -12.9908 83.3322
CA 11.7082 1.53199 58.2678
CA -1.55097 21.9251 38.3396
CA -7.67974 11.7621 46.2694
CA 22.4781 -13.7917 51.7361
CA -12.1057 3.43053 24.9456
CA -24.1204 -12.0005 85.3862
CA -16.3858 2.79639 73.5084
CA -3.07195 -12.9042 77.9819
CA -21.1097 -10.8531 83.4257
CA 18.7384 -23.3956 83.6724
CA -14.4983 -4.74114 64.8104
