489

CA -25.5372 -11.5958 64.8708
CA -6.19281 -4.82679 35.1554
CA -14.1555 4.22268 88.9526
CA 19.3133 -14.4725 53.8655
CA 0.0962783 1.45147 69.7926
CA -4.49292 5.21957 59.7626
CA 4.18612 -16.4639 79.8394
CA -15.5572 10.4975 47.87
CA 14.7127 -25.0724 96.506
CA -15.1098 7.08588 43.5344
CA -22.2137 -9.47203 85.8297
CA -0.425397 5.74609 79.0872
CA -10.7991 5.39049 32.0384
CA -19.7864 5.00588 40.5409
CA -18.3795 -8.19169 81.0539
CA -15.071 -2.64078 55.6949
CA 20.3733 -12.9745 81.1373
CA -23.6978 -4.77411 56.1069
CA 4.78414 13.0387 65.9797
CA 7.3254 13.9986 56.993
CA 1.2777 12.3734 21.1148
CA -8.38792 9.46559 89.7087
CA 11.9699 -3.82275 53.7267
CA -21.5626 -9.48302 67.443
CA -6.02822 13.3615 60.3524
CA -16.0224 -16.669 56.9501
CA 12.9989 -1.29591 61.999
CA -2.05636 -9.21573 64.2769
CA 8.47212 -36.2725 87.133
CA 13.2802 8.7193 66.7699
CA 10.9142 -1.04933 52.7059
CA -0.464281 -10.7823 68.3555
CA -19.675 -11.7531 75.0792
CA -7.4032 -12.7499 80.5723
CA 11.0099 -21.3634 93.7191
CA 18.7603 3.86514 48.3244
CA 8.63063 8.49905 63.8494
CA -23.6711 -11.192 62.697
CA 5.20676 -8.71324 44.8373
CA -6.17435 13.5408 46.9033
CA 17.164 -24.4625 83.2353
CA 24.4827 -6.08726 66.8499
CA 1.39426 -16.7424 53.704
CA 19.0596 -21.0899 52.4309
CA -35.7827 0.58955 73.0601
CA 3.29025 2.72652 56.7651
CA 2.93273 15.2803 40.7168
CA 24.9009 15.0436 77.2501
CA 0.34862 14.3641 78.2795
CA -3.07917 10.9383 17.5383
CA -0.990606 8.12475 21.4465
CA 10.8478 -10.4572 51.389
CA -16.4638 -13.4862 69.6524
CA 9.38829 -15.4811 85.5571
CA 10.5553 13.579 77.6535
CA -4.1714 -2.36735 75.1274
CA -25.5122 -6.99787 86.382
CA -6.67433 6.52951 56.3752
CA -15.5424 -14.8826 82.1887
CA -18.5374 7.66685 47.5547
CA 4.80324 0.335673 44.2119
CA -5.91418 12.252 56.5402
CA 0.315713 -7.42869 83.7149
CA 8.71581 14.4854 19.697
CA -32.3548 -11.1692 69.6601
CA 1.91526 15.385 76.0582
CA -23.245 -16.0751 72.727
CA 0.727699 -8.79228 59.4281
CA -1.46346 -14.5059 52.4485
CA 6.30237 0.931491 66.8154
CA -14.2584 7.71355 40.2519
CA -2.37748 12.0141 62.9133
CA -4.81988 17.3225 13.7168
CA -16.3365 15.2743 48.8203
CA 8.3959 -6.31461 51.5314
CA -2.77974 13.5084 22.2138
CA -4.77841 -16.9471 77.6536
CA -23.1158 -8.84319 83.3157
CA 23.3025 -10.6176 57.9596
CA 1.21112 -16.6312 74.4805
CA -5.622 14.9273 15.3201
CA -23.5118 -4.13772 58.7698
CA 1.24437 15.4819 74.3268
CA 9.40752 3.65161 71.0206
CA 21.7306 -23.8828 84.272
CA 2.15764 -13.915 65.6199
CA -15.9062 5.3109 50.4305
CA 21.2575 -12.8596 71.0006
CA 4.16297 5.92367 68.9451
CA 16.8502 2.54979 48.9061
CA -10.299 18.6567 79.3067
CA -3.1424 8.43321 63.3133
CA -0.692287 -6.25715 62.2388
CA 15.0861 -8.3552 83.9753
CA -9.8811 -7.99942 87.7015
CA 8.70129 13.2664 67.8295
CA 13.3791 5.01506 52.4786
CA 5.41532 -15.2243 82.8748
CA 4.44102 7.67337 65.8211
CA 27.1241 9.47691 76.7686
CA -25.7783 -5.72006 73.3598
CA -32.8475 4.31973 72.2465
CA 0.0690883 12.081 44.1382
CA -7.10594 -3.34357 62.6998
CA 19.5311 -22.9364 83.3236
CA -0.874103 -12.945 79.7379
CA -24.5296 8.95113 38.2675
CA 7.00762 -8.76234 80.736
CA -3.91907 -7.53495 81.8997
CA 9.07024 -24.6463 76.6165
CA 24.5363 -20.4171 47.1213
CA -16.0532 -12.8191 87.5915
CA -30.3786 -7.28255 70.8843
CA 8.81856 5.66153 45.7672
CA 8.20558 11.5846 18.448
CA -24.0254 -2.77902 55.8076
CA -15.2696 -15.6157 87.4111
CA -5.85085 6.91717 30.6896
CA -16.6831 -6.13187 55.6991
CA 7.62217 -14.4963 85.8959
CA -5.9418 -11.0669 63.588
CA 9.57018 -1.36962 50.8015
CA 16.5549 -2.53686 60.7346
CA -17.5327 -1.44504 53.5874
CA 13.794 -23.5775 88.5671
CA 19.4744 18.7648 72.1719
CA 22.9365 -11.9508 49.3833
CA 11.1859 -5.97505 55.8789
CA -5.24748 -12.5598 76.6116
CA -3.31566 16.1753 76.942
CA -11.8155 12.362 72.8368
CA -10.5843 -11.8042 77.5932
CA 3.45214 -8.79664 83.1614
CA 12.4179 -22.9909 93.0665
CA -12.5678 -6.9582 56.0907
CA 5.57311 -12.601 74.5419
CA -21.2 -10.4587 79.5195
CA -18.977 -11.2968 79.9445
CA 9.33652 -15.874 72.5893
CA -14.7042 -11.9164 71.2054
CA 6.36908 10.0161 62.8461
CA -1.479 13.3004 25.5947
CA -5.11778 -2.93078 38.7975
CA -12.5747 -8.46217 54.7573
CA 3.55599 -6.23701 57.2919
CA -26.5114 5.77949 52.147
CA 11.347 0.483612 54.2887
CA 5.85265 8.8199 76.8702
CA 8.33908 4.69816 64.7511
CA -14.6066 -3.2103 59.2964
CA -5.18133 1.37885 31.0407
CA 17.9028 6.77882 65.8374
CA 21.8848 18.275 77.6391
CA -13.1711 7.89479 43.6025
CA 11.49 -31.3156 91.6833
CA 2.69251 -7.09515 64.2948
CA 0.244309 14.7784 45.8958
CA -20.9509 3.44385 42.8698
CA -5.32196 -4.69579 63.9821
CA -14.3209 -8.31913 56.9283
CA -10.704 20.5457 44.4904
CA -22.2813 -9.25161 70.7083
CA 19.9451 -3.03315 65.4498
CA -14.908 -17.7459 90.3982
CA 12.7476 -29.4072 86.5337
CA 0.171907 -7.48614 64.107
CA -8.29493 20.3272 44.5667
CA 12.1794 -31.1743 89.362
CA -3.44177 -1.50942 62.8528
CA -7.56596 -9.51553 84.8023
CA 0.8459 4.07815 62.9219
CA -1.28457 -17.4415 58.7533
CA -12.9451 1.3607 54.8243
CA -8.26327 13.8153 81.152
CA 12.9681 7.16392 67.7788
CA -3.16712 2.16298 66.1061
CA -14.5293 13.8644 45.5516
CA -16.4709 21.2978 47.8453
CA 6.37335 6.5589 61.7519
CA 8.94572 -15.6095 87.3941
CA -10.1994 10.9914 63.5871
CA 1.47058 12.7073 66.0533
CA -6.93666 13.1515 72.4422
CA -0.824161 -6.13834 71.5318
CA -1.96064 12.0922 30.9069
CA -19.6372 -4.16484 61.3013
CA 24.1012 -16.5594 49.895
CA -8.24985 11.6782 63.6526
CA -22.8635 -12.6417 64.7335
CA -1.22044 -14.7091 59.3531
CA -0.951467 3.99659 61.1111
CA -0.989939 -5.17534 66.5929
CA -2.38387 15.3091 42.1159
CA -6.66092 -7.4253 54.5764
CA -17.4922 -11.5045 81.5934
CA -25.3639 -19.3308 74.5743
CA -2.7163 -1.15108 48.9542
CA -12.9934 -6.58903 45.5306
CA -5.75889 -9.4938 83.7203
CA -26.058 -2.74578 55.6542
CA -0.794464 17.2091 39.7995
CA -17.4102 9.4468 39.7179
CA 9.48081 -20.7768 96.0118
CA -8.63449 21.3449 46.6035
CA 4.8585 9.84625 66.7169
CA 13.794 -27.1722 98.2409
CA 24.2011 -9.31291 42.3957
CA 1.35361 -19.3775 77.2903
CA 7.21855 -11.1922 50.8298
CA -0.331699 17.5307 42.952
CA -15.666 -0.456394 77.6797
CA -12.5974 -13.5641 90.3084
CA 13.3366 -11.9911 88.0767
CA -10.4897 -0.12149 77.5284
CA 5.33562 13.4557 40.1643
CA 21.8131 -15.5701 73.9764
CA 10.2913 -1.86104 63.2753
CA -27.0738 -6.40185 88.861
CA -24.0105 -8.87124 89.921
CA 0.874843 3.47146 78.2622
CA -10.5159 1.169 74.0776
CA -22.6501 -16.3936 82.9857
CA 8.3562 -19.4654 82.5747
CA 15.8868 18.8493 70.7683
CA -16.4956 1.28737 73.8916
CA 8.32114 10.753 57.3271
CA 3.71197 3.09866 58.8529
CA -5.86574 1.82116 62.5131
CA 2.80988 15.8561 78.389
CA 11.3214 -4.4858 65.5552
CA 24.4855 -15.882 48.2462
CA -17.7526 6.02219 43.3292
CA -6.81563 -10.5916 59.7565
CA 7.12265 -5.37844 49.8977
CA 5.27568 -12.8527 64.1022
CA -12.1541 9.85863 83.7681
CA 19.0665 -15.2186 89.2953
CA -21.9225 -5.79604 76.1056
CA -18.4354 -10.3731 53.6889
CA 2.15531 12.1598 80.3007
CA -4.76417 -0.344658 80.0888
CA 5.53577 9.65776 56.7958
CA 6.84883 10.5697 43.4812
CA 6.71392 -7.0059 70.5689
CA 11.2201 -6.74749 78.7014
CA -28.0375 3.22211 47.6504
CA -13.1831 -2.87026 26.1026
CA -3.51393 6.11634 26.1488
CA 15.3251 -20.8128 86.9165
CA -6.30047 -2.3476 29.8044
CA 6.68781 3.1862 62.2595
CA -15.0817 18.4559 45.8459
CA 1.72664 -12.2875 72.7403
CA 9.13531 -8.15515 43.8514
CA 16.384 -2.63229 63.992
CA 0.454969 -13.0307 59.2239
CA 10.2101 13.909 65.3834
CA -19.836 -9.00452 93.2225
CA 16.7402 17.91 79.0915
CA 16.2795 -14.896 79.0189
CA 7.04605 1.71819 47.0416
CA 2.87031 -11.7904 64.1054
CA 5.71658 12.8502 72.0823
CA -26.4848 1.28247 74.9979
CA -20.3403 -11.9877 82.9813
CA 4.748 16.2708 22.8519
CA 5.90157 -14.4996 68.2364
CA 3.84514 -15.513 63.85
CA -4.02973 10.287 65.5502
CA -25.1837 -9.68996 91.0363
CA 7.66475 -14.116 64.6966
CA 21.2179 -16.1439 80.3328
CA 10.1475 10.4851 83.4755
CA -3.41487 -8.67998 84.0495
CA -15.3993 9.75821 40.9875
CA 5.58946 10.1795 65.0876
CA -21.6435 -5.47926 59.5417
CA 3.2197 -13.6542 59.7698
CA 0.311965 -13.0666 52.3135
CA 3.07862 8.40604 15.8184
CA 10.6091 4.10083 52.2884
CA 23.4326 -11.682 68.1145
CA -11.3948 9.87858 81.4186
CA 3.47952 -3.59049 43.792
CA 9.1458 13.687 80.5997
CA -38.4744 1.84976 72.783
CA 2.78645 8.39373 67.3219
CA -10.5808 -2.27338 55.9398
CA -5.37733 -10.9941 57.5747
CA -11.4836 -13.5507 70.4757
CA 17.9286 -3.62431 64.1453
CA 20.9615 -18.5946 47.516
CA 18.3685 -18.8926 87.0504
CA -23.2569 -6.31678 81.0757
CA -6.49181 1.94352 86.6068
CA -26.8985 -9.25061 71.9053
CA 5.0755 -8.47345 79.1695
CA -6.5354 -15.0899 59.4837
CA 11.1797 -29.9205 90.2235
CA 12.4497 -2.96377 59.6129
CA -23.9736 5.344 38.4346
CA 10.7503 0.52432 50.0329
CA -38.4399 2.68436 70.8569
CA 21.1056 -4.82207 67.5332
CA -15.2846 -7.04677 66.2778
CA -1.45592 16.0509 23.7698
CA 24.6869 -10.3523 47.4496
CA 2.44934 -3.05433 72.8445
CA -9.03438 -10.9704 76.633
CA -16.1997 -5.15583 67.6151
CA -7.68383 6.75586 95.776
CA -7.60589 11.2663 66.0418
CA 14.8534 -1.42332 61.7054
CA 11.1385 -26.1118 77.0831
CA -4.59021 3.48658 63.9814
CA 16.4748 -16.1173 99.7738
CA -19.841 -14.7957 70.497
CA 8.07941 8.51674 53.6909
CA 23.3722 12.8876 73.233
CA 17.0041 13.1142 70.8559
CA -19.1403 -15.5915 82.6634
CA 14.1361 -11.2045 51.4834
CA -4.9133 3.72429 73.2586
CA 1.82759 -9.34551 63.9906
CA 16.93 -12.4081 72.7968
CA 24.8927 -13.4456 53.2287
CA -23.6136 -5.00254 60.3655
CA 12.4989 -3.13727 82.4898
CA 1.02855 8.12321 18.5744
CA -16.7569 -15.8604 89.0945
CA -2.83825 0.432732 84.398
CA -7.03455 -0.139955 30.195
CA -4.90959 -1.91991 81.3139
CA 21.0749 -17.2943 81.8069
CA -16.2126 13.371 52.5962
CA -15.2047 23.1873 49.3907
CA -15.1146 -1.70381 48.9605
CA 0.628016 -0.963695 46.0279
CA -0.592023 -15.6947 72.6922
CA 10.4088 9.72591 63.7507
CA -11.8841 -3.10922 28.0434
CA 11.9279 -16.3758 52.2214
CA 3.03961 9.70074 81.5398
CA 4.24745 11.9296 78.6847
CA 3.31953 -6.50119 78.5904
CA -8.17164 3.40137 70.4267
CA -12.6727 -2.86887 56.3084
CA -13.3891 5.72363 36.1843
CA 5.65183 14.87 62.8992
CA -37.3345 3.55904 69.3084
CA 1.41201 11.653 76.4398
CA 11.3601 11.8949 76.9015
CA -27.7764 1.81756 71.0967
CA -10.5313 20.9263 46.5939
CA -4.99968 -8.50165 34.1125
CA -4.04917 6.39476 19.6956
CA -3.90223 16.6003 17.1547
CA -15.0519 -7.67727 53.3477
CA -17.0004 22.6112 49.2294
CA -19.1383 -13.7607 73.2953
CA -1.26541 0.0219774 66.7531
CA -16.1004 -16.7746 96.4862
CA -18.6424 4.24347 78.3166
CA -10.0282 6.20144 84.4542
CA -5.0354 -2.70608 33.8896
CA -1.18172 17.8967 17.8549
CA -24.5348 -18.3322 73.1772
CA -18.0672 17.3418 47.016
CA 4.44178 10.0054 76.6768
CA -7.22032 -13.7837 76.9527
CA 13.3574 7.43095 64.5304
CA -4.25595 -2.16748 31.2773
CA 20.6897 -11.161 73.9549
CA -15.072 -15.2697 71.416
CA -5.39723 -15.9694 74.8809
CA 9.49201 -22.5933 19.2167
CA 1.48475 -2.76787 42.9703
CA 0.969293 -14.2495 53.5631
CA 4.68283 9.31899 46.1569
CA 26.2794 11.4975 73.4795
CA -24.1064 -6.50519 62.2361
CA 22.9054 -10.7514 41.1397
CA -25.4705 -11.1198 87.645
CA -22.2205 -0.356904 78.3367
CA -17.9961 0.0294911 50.701
CA -2.38225 6.29045 15.4022
CA -6.30034 8.95597 51.0477
CA -17.7861 15.6933 54.4456
CA 9.30075 -19.1443 80.8936
CA 22.0219 -13.9151 51.2087
CA -8.2726 5.33072 28.8209
CA -11.9254 -2.85612 66.0492
CA 17.5437 -11.1283 56.2051
CA 3.69744 -8.24405 60.3264
CA -8.84963 8.5193 88.0143
CA -19.9739 6.15612 42.8823
CA -8.72292 1.20628 80.2938
CA -36.8553 4.04289 73.9821
CA 4.17233 14.3801 64.0134
CA -24.457 -2.391 58.4784
CA 9.46461 -6.24462 57.7249
CA 0.37897 -10.1764 61.2009
CA -11.8237 -9.30696 57.3163
CA 2.40399 19.1778 79.6018
CA 2.24763 -1.77508 69.1644
CA 11.9643 -1.8795 55.3454
CA 12.7511 -9.58304 57.9514
CA -0.873723 15.6393 44.0275
CA 10.4296 -33.0735 85.6305
CA -20.3105 -9.95972 87.2029
CA -4.2368 13.0257 47.5704
CA 2.05465 -6.66789 58.2348
CA 16.0385 -13.9635 88.1673
CA 13.2462 14.0401 79.7911
CA 4.10756 -10.3234 62.7943
CA -3.8374 -0.419208 76.6824
CA 22.0806 -8.54865 56.6769
CA -10.7106 -0.688176 30.801
CA 6.35213 -14.8717 61.7322
CA -5.33583 7.24996 87.5327
CA 12.8982 10.8658 77.8527
CA -9.43751 13.6924 75.0025
CA -0.611087 -10.7069 66.0288
CA -15.1838 3.23544 43.9653
CA 4.20462 -10.2973 71.058
CA -10.1225 4.92652 37.903
CA -6.02779 5.13256 18.6075
CA -18.3759 -14.1607 54.5351
CA -8.02049 20.6268 80.8957
CA -21.319 -1.11586 54.7855
CA -16.8677 -12.8514 82.8987
CA 7.36345 9.79473 66.1266
CA 3.49205 -8.88949 58.135
CA 13.547 -6.27199 62.8124
CA 19.6508 -13.7793 74.1743
CA 12.8273 -21.4947 88.2202
CA 27.733 12.6272 74.3106
CA 11.6282 1.17681 68.3939
CA -22.7568 -11.7677 78.2744
CA -18.627 6.88852 45.1397
CA 11.9215 -3.78789 78.3326
CA 10.9532 7.29103 62.0034
CA -8.44333 6.29265 71.7837
CA -12.681 -7.27808 50.8977
CA 1.16475 -5.29282 63.1383
CA 7.51995 -21.4313 78.3609
CA -12.777 1.86266 20.1898
CA -3.91032 8.99713 74.7075
CA 19.2223 -16.5188 55.9563
CA 8.58426 -11.3249 82.8387
CA -5.85168 -13.4172 62.6413
CA 8.29597 11.1618 59.6222
CA 12.7581 21.1938 74.3438
CA -14.2272 -3.84947 63.9711
CA 13.1581 -10.0239 84.5869
CA -16.3965 -15.7541 94.6119
CA 18.5346 15.1818 71.7245
CA -9.24944 17.3108 80.6937
CA 13.8214 -21.0858 93.8726
CA 15.7347 -11.8938 77.1237
CA -6.80136 -8.73996 53.2249
CA 0.00819466 14.496 70.5222
CA -28.5327 3.70938 54.8814
CA 8.58904 -1.07235 69.37
CA 6.97121 3.18571 45.419
CA -7.90331 -11.9934 85.2958
CA 2.96033 3.48603 61.5433
CA 11.3321 6.37258 49.5255
CA -19.8474 3.6708 75.9791
CA 5.5495 -13.8098 71.2782
CA -13.5426 4.85789 85.831
CA -0.0205799 -4.43123 73.3607
CA 11.9882 -25.3948 88.7299
CA -21.1882 -8.35392 60.8735
CA -26.1537 1.87009 52.7035
CA -9.45541 11.5437 60.7381
CA 17.3379 -19.4114 98.1568
CA 19.3044 -12.9908 83.3322
CA -3.79957 13.2483 62.4389
CA -15.5251 20.9149 45.8929
CA -7.67974 11.7621 46.2694
CA 22.667 -6.68309 66.2095
CA -12.1057 3.43053 24.9456
CA 8.75299 11.5676 82.4181
CA 16.0453 -25.6 80.7
CA 9.78613 -14.1268 52.5264
CA -10.5397 12.5109 46.3314
CA 18.7024 -11.6202 71.5656
CA -11.2939 -11.6537 56.3836
