489

CA -10.822 2.31233 66.6421
CA -6.19281 -4.82679 35.1554
CA 11.1474 -19.2974 85.3939
CA 19.3133 -14.4725 53.8655
CA -16.5271 -8.9289 81.1187
CA -19.0591 -16.2129 88.7286
CA -7.9439 -6.31057 53.5766
CA 5.53746 -11.6256 61.201
CA 14.7127 -25.0724 96.506
CA -3.66223 -12.4493 56.55
CA -15.4073 -9.62647 75.4564
CA 15.1736 17.2863 80.8415
CA -10.7991 5.39049 32.0384
CA 7.4017 1.44136 66.8561
CA 18.8022 3.05782 50.6851
CA 2.62261 1.74617 48.4897
CA 1.20389 18.9473 44.3547
CA -2.4407 -7.29749 62.4341
CA 4.78414 13.0387 65.9797
CA -0.402937 13.036 65.1778
CA 1.2777 12.3734 21.1148
CA -15.4195 2.39392 50.3038
CA 11.9699 -3.82275 53.7267
CA -21.5626 -9.48302 67.443
CA -6.02822 13.3615 60.3524
CA -18.139 -13.8218 56.5499
CA 12.9989 -1.29591 61.999
CA -20.7653 -8.43602 79.2053
CA 8.47212 -36.2725 87.133
CA 13.2802 8.7193 66.7699
CA -28.2564 -5.29279 55.6869
CA 8.54246 -14.969 60.8344
CA 5.55971 14.7894 20.7908
CA 9.35612 13.4916 75.2534
CA -0.185993 11.8928 44.2311
CA 19.9126 10.6835 81.2953
CA 8.63063 8.49905 63.8494
CA -20.1118 -6.98634 59.5137
CA -20.5726 -0.21873 53.9258
CA -19.5356 5.38728 40.75
CA 17.9365 -4.41499 63.6964
CA 24.4827 -6.08726 66.8499
CA 1.39426 -16.7424 53.704
CA -26.6762 -11.552 69.7945
CA -9.87564 13.9333 60.0911
CA -9.20346 11.8683 78.6655
CA 2.93273 15.2803 40.7168
CA 24.9009 15.0436 77.2501
CA 8.44674 11.6722 64.6034
CA -3.07917 10.9383 17.5383
CA -0.990606 8.12475 21.4465
CA 8.9856 5.19031 15.092
CA -16.4638 -13.4862 69.6524
CA 9.38829 -15.4811 85.5571
CA 10.5553 13.579 77.6535
CA -21.1552 -7.60856 51.8114
CA 18.3526 -6.46158 76.3331
CA 12.136 -9.13382 74.2918
CA -15.5424 -14.8826 82.1887
CA 11.9638 -5.41897 49.7535
CA -2.32995 10.2172 62.5294
CA -5.91418 12.252 56.5402
CA 0.315713 -7.42869 83.7149
CA 8.71581 14.4854 19.697
CA 16.8262 3.27677 45.8198
CA 2.02016 16.5436 42.0446
CA -23.245 -16.0751 72.727
CA 0.808259 16.0191 43.5611
CA 18.5928 16.4941 79.663
CA 9.30897 -21.6407 75.2629
CA -14.2584 7.71355 40.2519
CA 9.42493 -39.5238 90.507
CA -7.48562 2.77587 32.1769
CA -16.3365 15.2743 48.8203
CA 12.2579 15.0421 17.5832
CA 8.49325 0.64052 45.5147
CA -4.77841 -16.9471 77.6536
CA 8.8381 -15.5651 78.2892
CA 23.3025 -10.6176 57.9596
CA 1.21112 -16.6312 74.4805
CA -5.622 14.9273 15.3201
CA 16.5153 -21.0933 83.8277
CA -9.0649 3.67768 74.4826
CA 7.56181 -6.94963 76.3053
CA 21.7306 -23.8828 84.272
CA 5.74529 -2.61817 68.7941
CA -15.9062 5.3109 50.4305
CA -8.59779 -6.55101 85.7818
CA 4.16297 5.92367 68.9451
CA 16.8502 2.54979 48.9061
CA 10.5936 6.1474 65.324
CA -3.1424 8.43321 63.3133
CA -0.692287 -6.25715 62.2388
CA 15.0861 -8.3552 83.9753
CA 20.0677 15.5094 80.7768
CA -5.07112 -1.62872 62.0439
CA 13.3791 5.01506 52.4786
CA 3.94416 11.7809 63.8605
CA 8.07274 4.62745 79.4189
CA -0.722275 14.9426 26.643
CA -25.7783 -5.72006 73.3598
CA -32.8475 4.31973 72.2465
CA -23.2649 -7.27503 55.2014
CA -7.10594 -3.34357 62.6998
CA 16.5925 0.385152 59.958
CA -14.5245 4.26943 34.939
CA -7.12759 -4.32368 66.7436
CA 7.00762 -8.76234 80.736
CA 10.0491 -24.0127 90.4426
CA 9.07024 -24.6463 76.6165
CA -4.60033 12.725 45.3246
CA -16.0532 -12.8191 87.5915
CA 10.1084 -10.9095 53.2503
CA 8.81856 5.66153 45.7672
CA 8.20558 11.5846 18.448
CA -24.0254 -2.77902 55.8076
CA 11.4889 -26.5987 102.209
CA 6.18931 6.07492 65.9247
CA 11.6709 -23.9182 85.1931
CA 10.2435 8.36568 64.8373
CA -5.9418 -11.0669 63.588
CA 10.753 9.75972 61.2334
CA 18.9058 5.77898 64.3559
CA -17.5327 -1.44504 53.5874
CA 13.794 -23.5775 88.5671
CA 2.67315 14.6822 43.4851
CA 12.9615 -25.9248 82.7162
CA 11.3917 15.4816 14.2867
CA -13.4638 18.3445 44.712
CA -8.7203 -0.427119 71.8171
CA 11.1017 -27.4228 83.0735
CA -4.326 7.1008 17.9577
CA -3.65514 18.1815 74.5306
CA -1.2776 -9.31559 78.241
CA 9.6763 0.775318 56.8167
CA -6.48924 1.09856 32.0861
CA -21.2 -10.4587 79.5195
CA -18.977 -11.2968 79.9445
CA 10.08 -29.6112 77.6319
CA 21.5067 -10.8681 47.8415
CA -14.2358 -11.6885 76.0808
CA -1.479 13.3004 25.5947
CA -5.11778 -2.93078 38.7975
CA -12.5747 -8.46217 54.7573
CA 3.55599 -6.23701 57.2919
CA -10.5334 18.0785 42.3086
CA 11.4393 7.09584 68.6188
CA 7.69716 -19.6345 74.3365
CA 8.33908 4.69816 64.7511
CA -10.5675 25.5124 44.4788
CA 8.90969 -9.62674 50.5189
CA -12.0869 -15.027 78.1864
CA -17.2567 0.101578 71.4932
CA -3.41302 -10.0917 66.1131
CA 7.41164 -14.4854 74.126
CA 2.69251 -7.09515 64.2948
CA 0.244309 14.7784 45.8958
CA 16.0429 -5.99107 65.0016
CA -13.6684 -2.58682 76.693
CA -17.0245 3.84788 72.1364
CA 0.259126 -11.8273 82.5285
CA -32.1269 -6.29077 53.2387
CA 19.9451 -3.03315 65.4498
CA -14.2901 22.2513 44.2907
CA 12.7476 -29.4072 86.5337
CA -10.7009 5.54166 87.0922
CA -25.9975 -8.57115 89.2337
CA 12.1794 -31.1743 89.362
CA -3.44177 -1.50942 62.8528
CA -1.7847 3.30842 65.5398
CA -15.1169 -13.4753 76.4807
CA 18.2355 -10.6888 83.6725
CA -12.9451 1.3607 54.8243
CA -8.26327 13.8153 81.152
CA 12.9936 12.0919 75.8663
CA -2.75748 -7.01318 57.3461
CA -3.42536 -15.8517 75.514
CA -12.1791 5.83304 61.2918
CA 5.51295 2.51094 54.7916
CA -12.7198 21.044 80.2457
CA 22.1124 -10.6363 76.1362
CA 1.47058 12.7073 66.0533
CA -25.6271 0.0273682 73.8862
CA -2.31016 -3.35686 64.8813
CA -5.2904 14.3852 67.8445
CA 5.08101 -3.18334 64.303
CA -12.52 1.02099 32.5431
CA 13.8419 -13.9654 50.468
CA -22.8635 -12.6417 64.7335
CA 23.7789 -7.65798 46.5914
CA -0.951467 3.99659 61.1111
CA 8.36246 1.72644 55.8787
CA -2.38387 15.3091 42.1159
CA -6.66092 -7.4253 54.5764
CA -17.4922 -11.5045 81.5934
CA -28.0493 -6.83183 59.28
CA -2.7163 -1.15108 48.9542
CA -12.9934 -6.58903 45.5306
CA -34.9711 0.845611 70.2512
CA -26.058 -2.74578 55.6542
CA -0.794464 17.2091 39.7995
CA -17.4102 9.4468 39.7179
CA 10.8392 -17.3798 87.3664
CA -8.63449 21.3449 46.6035
CA -18.4823 -13.9698 69.0061
CA -22.5634 8.18697 44.0683
CA 24.2011 -9.31291 42.3957
CA 1.35361 -19.3775 77.2903
CA 7.21855 -11.1922 50.8298
CA 20.4862 17.3988 81.8563
CA -15.666 -0.456394 77.6797
CA -12.5974 -13.5641 90.3084
CA 6.521 -11.3899 46.7991
CA -10.4897 -0.12149 77.5284
CA 5.33562 13.4557 40.1643
CA 9.01972 -9.68935 82.2219
CA 10.2913 -1.86104 63.2753
CA -18.2505 -13.4444 87.6992
CA 4.21491 18.6747 40.4964
CA 0.874843 3.47146 78.2622
CA -10.5159 1.169 74.0776
CA -22.6501 -16.3936 82.9857
CA -11.378 19.3885 83.0621
CA 7.38189 -2.65326 47.0762
CA 6.43643 -15.0868 59.4761
CA 8.32114 10.753 57.3271
CA 3.71197 3.09866 58.8529
CA 3.74341 -9.37041 78.2013
CA 2.80988 15.8561 78.389
CA 11.3214 -4.4858 65.5552
CA 24.4855 -15.882 48.2462
CA -7.85538 4.61275 77.9859
CA -18.2165 -16.8367 84.8346
CA -26.6053 5.01448 49.3689
CA 5.27568 -12.8527 64.1022
CA -12.1541 9.85863 83.7681
CA 19.0665 -15.2186 89.2953
CA -22.8514 -18.7935 68.4779
CA -18.4354 -10.3731 53.6889
CA -1.6778 -8.09465 64.7388
CA -2.93811 -8.58286 34.3787
CA -15.1431 -15.792 85.4079
CA 6.84883 10.5697 43.4812
CA 20.396 -12.6445 49.19
CA 11.2201 -6.74749 78.7014
CA -6.03866 3.51085 26.3945
CA -13.1831 -2.87026 26.1026
CA -3.51393 6.11634 26.1488
CA 10.1315 -8.31922 74.2099
CA 21.5183 -9.50153 67.9402
CA 6.68781 3.1862 62.2595
CA -15.0817 18.4559 45.8459
CA 19.3403 -4.42836 62.0806
CA 9.13531 -8.15515 43.8514
CA 16.384 -2.63229 63.992
CA 12.4586 -8.28033 41.5982
CA 10.2101 13.909 65.3834
CA -17.5731 -3.34914 77.7192
CA 16.7402 17.91 79.0915
CA 6.59859 1.6523 68.6367
CA 9.07963 8.88875 77.611
CA 1.10332 -4.70813 65.4223
CA -1.26402 17.0658 28.704
CA -26.4848 1.28247 74.9979
CA -22.762 -7.75265 83.0189
CA -15.6117 -3.16457 50.2638
CA 13.8193 -26.5895 91.6227
CA -10.805 14.3761 47.3367
CA 0.43536 -4.03263 71.3532
CA -25.1837 -9.68996 91.0363
CA 7.66475 -14.116 64.6966
CA -16.1042 4.47268 36.4976
CA 10.1475 10.4851 83.4755
CA -17.7258 8.67045 44.9731
CA -15.3993 9.75821 40.9875
CA -9.94306 -13.6831 92.4044
CA -2.75996 11.1033 74.2867
CA -0.0429896 -0.970225 62.5654
CA 16.8515 6.2067 63.5707
CA -4.92758 13.4312 75.5162
CA 10.6091 4.10083 52.2884
CA 23.4326 -11.682 68.1145
CA -4.93084 16.1083 71.4134
CA 3.47952 -3.59049 43.792
CA -5.67297 -8.89382 80.8624
CA 1.8479 15.1523 24.9634
CA -11.0523 19.8844 43.1116
CA -10.5808 -2.27338 55.9398
CA -18.9096 -1.43799 74.6311
CA 9.70875 1.55911 68.7797
CA -3.44986 -15.899 60.185
CA 6.00128 10.9457 40.2773
CA 18.3685 -18.8926 87.0504
CA -23.2569 -6.31678 81.0757
CA -6.49181 1.94352 86.6068
CA -26.8985 -9.25061 71.9053
CA 5.0755 -8.47345 79.1695
CA -6.5354 -15.0899 59.4837
CA 11.5432 9.51448 56.9462
CA -1.71797 -3.31272 62.8983
CA 14.1519 -13.1684 90.0181
CA 13.4613 -29.1163 98.299
CA 0.106605 19.3504 75.2869
CA -28.8346 -5.366 51.3804
CA -1.31242 7.07433 58.5227
CA -1.45592 16.0509 23.7698
CA 24.6869 -10.3523 47.4496
CA 9.56805 1.06105 50.0216
CA 16.2884 -13.4437 85.4194
CA -0.339178 -9.31038 67.1551
CA 14.7022 -8.3428 76.0903
CA -22.7544 -18.0425 66.7615
CA 7.31645 -16.7128 79.5918
CA 11.1385 -26.1118 77.0831
CA -5.53738 2.16537 16.1068
CA 16.4748 -16.1173 99.7738
CA 3.00647 7.98475 76.9594
CA -0.627947 -4.24493 60.9244
CA 23.3722 12.8876 73.233
CA 17.0041 13.1142 70.8559
CA -19.1403 -15.5915 82.6634
CA 14.1361 -11.2045 51.4834
CA 25.8362 -14.3923 49.1147
CA 19.985 -8.13269 78.988
CA -30.6287 -11.5199 68.0763
CA 24.8927 -13.4456 53.2287
CA -22.2687 -3.03982 52.414
CA -21.488 5.32137 41.2193
CA -13.4294 10.9528 81.0769
CA 1.34683 -4.10338 67.6615
CA -26.9228 -4.00207 59.5799
CA -7.03455 -0.139955 30.195
CA 1.15279 -1.32654 49.7058
CA 21.0749 -17.2943 81.8069
CA -16.2126 13.371 52.5962
CA 12.6152 -5.86513 51.5242
CA 12.1281 -5.87628 76.1152
CA 0.628016 -0.963695 46.0279
CA -9.86828 -6.45321 50.863
CA 16.5706 -24.4336 87.6548
CA 1.65055 1.7176 58.9523
CA -17.9906 2.05798 72.9887
CA 3.03961 9.70074 81.5398
CA 4.24745 11.9296 78.6847
CA 13.5151 5.35177 65.8892
CA -8.17164 3.40137 70.4267
CA 10.2207 6.54556 80.5458
CA -13.3891 5.72363 36.1843
CA -10.3051 9.04446 60.7926
CA 8.65809 -2.00791 55.8899
CA 1.41201 11.653 76.4398
CA 12.4617 6.20919 53.9561
CA -27.7764 1.81756 71.0967
CA -10.5313 20.9263 46.5939
CA 2.58278 5.15685 17.3915
CA -16.4164 -1.99589 75.591
CA -6.26151 -3.43331 36.7249
CA -15.0519 -7.67727 53.3477
CA 17.5851 -5.47951 73.5588
CA -17.6959 -15.154 85.7126
CA -20.1487 -7.48786 75.3164
CA 11.8274 -8.1523 51.1358
CA -25.3033 -11.3225 89.2333
CA -8.89266 11.3462 44.9907
CA -5.0354 -2.70608 33.8896
CA -1.18172 17.8967 17.8549
CA -6.57034 5.72721 27.4727
CA -18.0672 17.3418 47.016
CA 9.7931 -17.9414 78.3597
CA -7.22032 -13.7837 76.9527
CA -17.5301 -12.6561 72.6953
CA 15.2828 -11.8549 55.7734
CA 20.6897 -11.161 73.9549
CA -15.072 -15.2697 71.416
CA -5.39723 -15.9694 74.8809
CA 9.49201 -22.5933 19.2167
CA -12.0565 3.80688 36.5135
CA -16.182 -19.1002 96.9465
CA -8.55074 -1.28742 74.5959
CA 26.2794 11.4975 73.4795
CA -1.00187 -18.7386 56.5266
CA 13.9783 -31.8015 88.5492
CA -14.3274 -8.00098 44.1578
CA -22.2205 -0.356904 78.3367
CA 1.33204 -9.70033 64.5494
CA -2.38225 6.29045 15.4022
CA 7.22779 9.54403 77.7436
CA 2.07294 -1.30226 39.7412
CA 1.13447 17.9201 24.0445
CA 15.2982 -31.2425 91.7778
CA -8.2726 5.33072 28.8209
CA -11.9254 -2.85612 66.0492
CA -1.9021 -10.9433 77.6006
CA 3.69744 -8.24405 60.3264
CA 16.7376 -8.86996 76.5273
CA -19.9739 6.15612 42.8823
CA -8.72292 1.20628 80.2938
CA -11.8561 -14.8516 92.387
CA 4.17233 14.3801 64.0134
CA -24.457 -2.391 58.4784
CA -27.0949 -5.14595 61.0647
CA 0.37897 -10.1764 61.2009
CA -8.71366 -10.5688 83.7026
CA -14.1196 -13.194 79.6083
CA 2.24763 -1.77508 69.1644
CA -8.90693 1.02929 72.9732
CA 7.46534 14.4922 40.9898
CA 8.62291 8.91449 84.0721
CA 10.4296 -33.0735 85.6305
CA 9.48837 5.53808 82.6889
CA -4.2368 13.0257 47.5704
CA -16.4729 1.9047 77.1377
CA 16.0385 -13.9635 88.1673
CA 13.2462 14.0401 79.7911
CA 9.84767 -9.43958 83.9246
CA 18.6384 -14.837 83.7876
CA 11.8435 -31.4099 85.3053
CA -10.7106 -0.688176 30.801
CA 6.35213 -14.8717 61.7322
CA -19.9041 -12.1353 89.6953
CA 12.8982 10.8658 77.8527
CA -3.25511 2.67303 88.6169
CA -0.611087 -10.7069 66.0288
CA -10.0333 -1.424 83.8866
CA 4.05815 7.17831 80.9133
CA -19.9578 2.19798 78.2485
CA -6.02779 5.13256 18.6075
CA -18.3759 -14.1607 54.5351
CA 0.191378 4.68359 76.8666
CA -4.5801 15.7572 69.3689
CA -16.8677 -12.8514 82.8987
CA 4.56323 6.38839 18.6401
CA 3.49205 -8.88949 58.135
CA -0.286925 13.9254 15.2759
CA -31.0486 -5.82292 51.2352
CA 22.6105 -18.5875 85.0212
CA -0.83239 15.6976 74.9183
CA -17.7636 4.9645 46.5591
CA -0.221946 -8.03384 62.945
CA -1.68046 1.11664 47.9618
CA 11.6948 -18.2429 88.9323
CA 10.9532 7.29103 62.0034
CA -8.99924 -7.87321 63.1333
CA -12.681 -7.27808 50.8977
CA 1.16475 -5.29282 63.1383
CA 7.51995 -21.4313 78.3609
CA 15.0446 -24.5584 89.8797
CA -3.91032 8.99713 74.7075
CA 14.1852 -5.95487 49.0868
CA -18.2005 -14.7182 78.134
CA -0.510358 -1.95101 67.4437
CA 8.29597 11.1618 59.6222
CA -3.72459 13.7487 65.7176
CA -14.2272 -3.84947 63.9711
CA 18.4808 16.8884 75.0461
CA -16.3965 -15.7541 94.6119
CA 18.5346 15.1818 71.7245
CA -9.24944 17.3108 80.6937
CA 13.8214 -21.0858 93.8726
CA -6.5368 -16.8812 72.7788
CA 17.0841 -16.921 55.4235
CA 25.2452 16.1968 79.9738
CA 7.37645 -14.0958 71.9712
CA 2.3693 9.21941 21.4607
CA 22.443 -11.8133 46.0693
CA -7.90331 -11.9934 85.2958
CA -15.4705 7.1993 34.7407
CA -3.29846 -10.8095 34.2923
CA -19.8474 3.6708 75.9791
CA -5.87959 -12.7247 83.4704
CA -3.53791 13.6445 41.7975
CA -0.0205799 -4.43123 73.3607
CA 11.9882 -25.3948 88.7299
CA -21.1882 -8.35392 60.8735
CA -26.1537 1.87009 52.7035
CA -17.0497 -16.5789 79.1509
CA 17.3379 -19.4114 98.1568
CA 8.91638 8.87708 14.6452
CA 11.3478 -24.7242 79.2646
CA 24.4976 -9.923 68.9698
CA -15.9601 -8.67682 83.0009
CA -10.2246 13.2095 76.1704
CA -12.1057 3.43053 24.9456
CA -25.6989 2.81242 76.4476
CA 16.0453 -25.6 80.7
CA 23.053 -18.6906 44.396
CA 23.763 -15.5301 85.0504
CA -1.29755 16.3721 44.7651
CA 7.97535 12.7707 58.3416
