489

CA -14.8929 1.14318 71.1829
CA -6.19281 -4.82679 35.1554
CA 9.53216 1.52994 59.2406
CA -11.7457 -6.13978 52.5055
CA -16.5271 -8.9289 81.1187
CA -20.0236 -6.65063 63.0344
CA -7.9439 -6.31057 53.5766
CA 5.53746 -11.6256 61.201
CA -4.00702 -13.438 49.7204
CA -3.66223 -12.4493 56.55
CA -15.4073 -9.62647 75.4564
CA 20.0823 -16.6019 51.9533
CA -10.7991 5.39049 32.0384
CA -17.0201 3.73798 50.1906
CA 13.4493 -4.91415 62.6006
CA 1.07736 -17.5682 70.7806
CA 1.20389 18.9473 44.3547
CA -19.6495 -3.46181 51.1386
CA 4.78414 13.0387 65.9797
CA -0.402937 13.036 65.1778
CA 11.3988 6.7848 47.5115
CA -15.4195 2.39392 50.3038
CA 11.9699 -3.82275 53.7267
CA -11.3429 -4.88107 38.6506
CA -11.5361 16.9528 38.419
CA 10.0987 7.76188 76.1019
CA -5.48955 -2.568 76.683
CA -20.6009 -6.95852 58.4227
CA 8.47212 -36.2725 87.133
CA 10.044 10.4686 58.1076
CA -6.31441 14.55 76.052
CA 8.54246 -14.969 60.8344
CA 0.0725782 -7.28105 60.4706
CA -11.0675 -0.12545 63.8065
CA -0.185993 11.8928 44.2311
CA -17.5571 0.262479 50.1917
CA -5.1637 -1.25106 61.1803
CA -1.33133 5.65111 26.1233
CA -20.5726 -0.21873 53.9258
CA -19.5356 5.38728 40.75
CA 10.8572 -16.1393 62.1151
CA 6.49747 -28.8183 78.5803
CA 1.39426 -16.7424 53.704
CA -26.6762 -11.552 69.7945
CA -17.0148 -1.06124 74.5315
CA -18.0276 -9.78135 79.6611
CA -30.6933 2.86933 72.7013
CA -3.74915 13.4489 16.9945
CA 8.44674 11.6722 64.6034
CA -3.07917 10.9383 17.5383
CA -0.990606 8.12475 21.4465
CA 8.9856 5.19031 15.092
CA -16.4638 -13.4862 69.6524
CA -11.1835 -9.6117 88.7011
CA 9.91075 2.43395 17.0693
CA -2.73163 -4.65564 70.9121
CA -10.8516 10.9704 82.1381
CA 12.136 -9.13382 74.2918
CA -15.5424 -14.8826 82.1887
CA 8.19527 8.77655 65.9429
CA -2.32995 10.2172 62.5294
CA 3.33202 -4.76073 71.1568
CA 0.315713 -7.42869 83.7149
CA 8.71581 14.4854 19.697
CA -5.94086 -1.07555 74.7651
CA 18.5823 8.99005 72.758
CA -11.2735 -11.8028 93.2158
CA 2.06111 14.6113 18.7146
CA -10.4372 0.546231 86.3584
CA 7.64153 -11.8269 82.4141
CA -14.2584 7.71355 40.2519
CA -15.924 -10.2229 50.5732
CA -7.48562 2.77587 32.1769
CA -16.3365 15.2743 48.8203
CA 12.2579 15.0421 17.5832
CA 8.49325 0.64052 45.5147
CA -30.6167 -11.11 70.2262
CA -15.4724 -10.977 44.1069
CA 14.6601 -13.106 54.6286
CA -19.6886 -3.41409 64.5571
CA -5.622 14.9273 15.3201
CA 5.9002 3.90511 58.3323
CA -9.0649 3.67768 74.4826
CA -20.9677 -5.17087 74.8859
CA -7.63757 -8.42853 87.2622
CA -4.97676 1.36116 73.6855
CA -1.17146 -4.49656 58.3101
CA -8.59779 -6.55101 85.7818
CA 8.29871 -16.9658 82.8711
CA -1.54358 -11.93 52.0348
CA 10.5936 6.1474 65.324
CA 20.5769 2.1014 66.2954
CA -0.692287 -6.25715 62.2388
CA 12.6529 -25.9001 95.3464
CA -1.07346 -5.20788 70.3042
CA 8.06201 1.32086 61.3899
CA 13.3791 5.01506 52.4786
CA 3.94416 11.7809 63.8605
CA 8.07274 4.62745 79.4189
CA 9.67011 -18.1658 62.1955
CA -25.7783 -5.72006 73.3598
CA -22.3785 3.59598 74.0194
CA 18.4147 -1.14007 64.3628
CA -7.10594 -3.34357 62.6998
CA 9.47711 3.81494 53.9847
CA 8.58295 14.1726 64.1664
CA -7.12759 -4.32368 66.7436
CA -1.34615 8.92027 65.497
CA -23.8347 -0.917544 57.2381
CA 9.07024 -24.6463 76.6165
CA -4.60033 12.725 45.3246
CA -9.71481 7.83151 80.4287
CA 0.0489696 -4.54412 87.0172
CA 8.81856 5.66153 45.7672
CA 8.20558 11.5846 18.448
CA 11.1702 0.515601 65.2037
CA 5.22775 -4.98403 71.7516
CA -22.4541 -13.5708 88.1424
CA -22.6235 -10.7251 75.9641
CA 29.6122 17.1832 78.8488
CA -5.9418 -11.0669 63.588
CA -2.41858 9.44172 21.2734
CA 27.888 8.40645 72.7862
CA -17.5327 -1.44504 53.5874
CA 9.98089 -2.77484 60.856
CA 2.67315 14.6822 43.4851
CA 12.9615 -25.9248 82.7162
CA -16.6762 3.98878 74.274
CA 22.3534 -23.8455 86.6688
CA -19.3702 8.19739 34.441
CA 18.2971 -8.43874 85.5187
CA -4.326 7.1008 17.9577
CA -3.65514 18.1815 74.5306
CA -1.2776 -9.31559 78.241
CA 9.6763 0.775318 56.8167
CA -19.2966 -16.436 93.2811
CA -6.36012 -1.83513 80.7543
CA -18.977 -11.2968 79.9445
CA 10.3033 -7.01155 79.0078
CA 21.5067 -10.8681 47.8415
CA -14.2358 -11.6885 76.0808
CA 10.0033 12.655 41.2959
CA -26.6787 -17.9296 81.9463
CA 10.9199 4.81992 61.1065
CA 3.55599 -6.23701 57.2919
CA 19.1129 -14.3185 51.9565
CA -24.4638 2.58043 58.686
CA -26.3985 4.35421 74.2747
CA -11.3153 -12.8074 76.1157
CA -23.4893 1.9698 37.4927
CA 8.90969 -9.62674 50.5189
CA 8.86201 8.23176 46.5812
CA 4.13615 16.6254 61.3469
CA -19.5115 -8.42557 50.6649
CA 7.41164 -14.4854 74.126
CA -7.02097 16.1535 48.7712
CA 3.92388 -1.45252 62.053
CA 9.61338 -5.71658 65.5904
CA 2.04766 17.5166 40.1908
CA 10.326 9.70275 67.5714
CA 0.259126 -11.8273 82.5285
CA -0.526638 -2.77836 40.3598
CA -14.4721 2.94389 48.2127
CA -9.23344 -7.49025 35.8716
CA 12.7476 -29.4072 86.5337
CA -12.2231 7.40259 59.6397
CA -12.9326 25.2773 50.9373
CA -21.9111 5.11515 43.2657
CA -3.44177 -1.50942 62.8528
CA 7.31991 -10.1634 59.1839
CA -17.8162 -16.3505 89.4652
CA 18.2355 -10.6888 83.6725
CA 2.41294 -5.80934 40.1627
CA -6.08441 -7.17516 35.7436
CA 12.9936 12.0919 75.8663
CA 10.9257 -6.77207 58.8725
CA 12.6736 -33.5643 82.4799
CA -12.1791 5.83304 61.2918
CA 5.51295 2.51094 54.7916
CA -19.3365 19.5438 46.236
CA 22.1124 -10.6363 76.1362
CA 1.47058 12.7073 66.0533
CA -25.6271 0.0273682 73.8862
CA -2.31016 -3.35686 64.8813
CA -5.2904 14.3852 67.8445
CA -18.46 -10.7085 67.2057
CA -11.3312 4.25298 72.1057
CA -9.0734 18.544 82.4862
CA -22.8635 -12.6417 64.7335
CA -17.3191 -0.944139 51.7242
CA 0.188356 18.2683 41.1769
CA -1.45615 5.84958 69.7316
CA -13.8052 6.38643 36.3173
CA 8.322 -2.8397 66.6042
CA -11.2794 14.9361 79.5779
CA -28.0493 -6.83183 59.28
CA -2.7163 -1.15108 48.9542
CA -11.1989 -5.62874 49.7273
CA -10.6593 2.30173 33.3633
CA -26.058 -2.74578 55.6542
CA 18.2356 -29.1981 88.7787
CA 24.9922 -11.1673 66.866
CA -11.6625 1.76458 88.0786
CA -10.5617 7.74899 77.745
CA -18.4823 -13.9698 69.0061
CA -22.5634 8.18697 44.0683
CA 24.2011 -9.31291 42.3957
CA 1.35361 -19.3775 77.2903
CA 9.67381 11.4472 67.1786
CA 20.4862 17.3988 81.8563
CA -15.666 -0.456394 77.6797
CA 9.14787 -34.1467 84.6051
CA 6.521 -11.3899 46.7991
CA -10.4897 -0.12149 77.5284
CA -9.11777 9.2927 82.1423
CA 18.9481 -8.4285 54.8363
CA 7.14165 10.6558 50.0623
CA -18.2505 -13.4444 87.6992
CA -13.342 -10.0033 88.8138
CA 0.874843 3.47146 78.2622
CA -10.5159 1.169 74.0776
CA -22.6501 -16.3936 82.9857
CA 9.59997 -24.447 87.8389
CA 7.38189 -2.65326 47.0762
CA 10.7036 -26.7533 88.7618
CA 9.83466 13.2163 79.3867
CA -3.13645 6.03017 87.4178
CA -5.0296 -12.9789 59.1509
CA 17.2369 18.5875 80.7113
CA 11.3214 -4.4858 65.5552
CA -20.545 -15.3876 66.8302
CA -0.872206 19.6046 19.583
CA -18.2165 -16.8367 84.8346
CA 17.3555 -4.22388 61.2621
CA -3.51848 17.6289 70.7164
CA -12.1541 9.85863 83.7681
CA -4.62632 3.38119 27.5241
CA -22.8514 -18.7935 68.4779
CA -18.4354 -10.3731 53.6889
CA -1.6778 -8.09465 64.7388
CA -9.12276 -14.0144 86.5118
CA -15.1431 -15.792 85.4079
CA 6.84883 10.5697 43.4812
CA -3.90868 15.6797 64.9776
CA -3.65612 19.3216 68.3829
CA 5.8817 0.411126 59.022
CA -13.1831 -2.87026 26.1026
CA 6.6762 -5.26297 75.8339
CA 0.694284 -3.03762 61.0744
CA -6.23452 9.01633 14.1973
CA 9.75949 10.6249 75.0626
CA -15.0817 18.4559 45.8459
CA -15.1012 -13.7581 92.421
CA 9.13531 -8.15515 43.8514
CA 4.1619 -10.152 65.39
CA 12.4586 -8.28033 41.5982
CA -10.314 22.7756 45.3797
CA 10.8375 -24.0648 75.5993
CA 16.7402 17.91 79.0915
CA 6.59859 1.6523 68.6367
CA 12.2752 1.5555 61.8952
CA -9.79683 -2.10317 72.2303
CA -20.233 -5.50223 42.4543
CA 9.86996 -1.849 43.2561
CA -17.4151 -10.0485 75.3624
CA -15.6117 -3.16457 50.2638
CA 12.205 -2.81042 47.8288
CA -10.805 14.3761 47.3367
CA 0.43536 -4.03263 71.3532
CA -20.156 4.85974 37.5391
CA 12.678 -20.6538 87.3372
CA 7.7965 0.638097 67.1861
CA 10.1475 10.4851 83.4755
CA 9.66457 -0.710307 52.1954
CA 7.8745 -17.7744 61.6626
CA -9.94306 -13.6831 92.4044
CA -15.819 5.18979 64.2764
CA -20.8346 9.33272 39.0662
CA -14.6214 23.0658 46.6784
CA -9.2225 -6.7959 75.8502
CA 10.6091 4.10083 52.2884
CA 8.24334 -8.8145 77.6242
CA 9.00662 -27.2888 77.5624
CA 3.47952 -3.59049 43.792
CA -19.5818 4.22206 47.0935
CA -8.00227 28.0038 45.3873
CA -11.0523 19.8844 43.1116
CA -10.5808 -2.27338 55.9398
CA 8.20673 -13.0043 78.3285
CA 9.70875 1.55911 68.7797
CA -3.44986 -15.899 60.185
CA 10.431 2.995 58.1791
CA 18.3685 -18.8926 87.0504
CA -6.08381 12.3444 61.9385
CA -6.49181 1.94352 86.6068
CA -26.8985 -9.25061 71.9053
CA -4.41991 -6.91736 68.2321
CA -6.5354 -15.0899 59.4837
CA 11.5432 9.51448 56.9462
CA 0.490305 -1.87536 76.1363
CA -0.434777 8.49094 13.6668
CA 8.5215 4.27055 67.8042
CA -11.8383 11.0042 76.6012
CA -12.4711 -9.28855 45.4445
CA 0.897256 -17.5829 56.8806
CA -1.45592 16.0509 23.7698
CA 24.6869 -10.3523 47.4496
CA -3.43735 16.2012 76.7406
CA 16.2884 -13.4437 85.4194
CA 19.5442 -13.3951 87.795
CA 14.7022 -8.3428 76.0903
CA -22.7544 -18.0425 66.7615
CA 5.12548 14.7071 44.724
CA 17.8822 10.2714 74.7427
CA -5.36749 -9.43889 67.4213
CA 10.4445 -6.01058 54.0453
CA -17.7683 -7.16183 40.5722
CA -18.0604 2.88756 48.643
CA 4.19832 17.1086 23.4235
CA -16.4242 -5.73811 77.0817
CA -14.312 -11.7236 45.6508
CA 6.19415 -7.7641 86.9723
CA 6.70989 -25.7595 74.3065
CA 19.985 -8.13269 78.988
CA -30.6287 -11.5199 68.0763
CA 24.8927 -13.4456 53.2287
CA 10.5245 1.43292 80.3558
CA 22.8704 -13.4018 72.8029
CA -25.885 0.737698 56.5314
CA 1.34683 -4.10338 67.6615
CA -0.241532 -16.4937 52.1253
CA -7.03455 -0.139955 30.195
CA 3.39666 -3.05841 39.6236
CA -23.5864 -1.45288 60.4292
CA -12.0589 12.7477 83.3477
CA 12.6152 -5.86513 51.5242
CA 2.52147 -4.76407 81.9586
CA 0.628016 -0.963695 46.0279
CA 20.2052 -15.0103 71.4464
CA 14.4004 -22.7397 87.0987
CA 1.65055 1.7176 58.9523
CA 9.80952 11.8925 70.4343
CA 3.03961 9.70074 81.5398
CA 24.9554 -10.6568 41.2211
CA 13.5151 5.35177 65.8892
CA -8.17164 3.40137 70.4267
CA 6.90111 17.8634 21.5605
CA 7.74121 -10.6335 55.397
CA -10.3051 9.04446 60.7926
CA 8.65809 -2.00791 55.8899
CA 1.41201 11.653 76.4398
CA 7.72391 6.53577 79.196
CA -1.22301 -16.1573 74.5937
CA -9.66371 -2.2559 34.362
CA 12.9565 -24.9853 80.675
CA -18.3381 -11.4064 73.6198
CA -6.26151 -3.43331 36.7249
CA -20.9098 -20.0029 83.495
CA 17.5851 -5.47951 73.5588
CA -34.6058 -13.9641 66.9279
CA -20.1487 -7.48786 75.3164
CA -19.714 -11.34 71.4015
CA -25.3033 -11.3225 89.2333
CA -13.7001 3.13416 70.753
CA -17.63 -15.6835 68.8058
CA -1.18172 17.8967 17.8549
CA -6.57034 5.72721 27.4727
CA 4.29308 16.4589 64.248
CA 13.756 5.63231 54.5724
CA -7.22032 -13.7837 76.9527
CA -11.7857 9.93646 79.2389
CA -15.2996 -7.17037 78.9331
CA -22.2456 -11.4697 62.2269
CA 12.5432 -31.9488 87.6966
CA 21.7197 -17.6204 52.9079
CA -15.983 7.92023 44.8755
CA -12.0565 3.80688 36.5135
CA 0.229667 14.8923 74.3311
CA 8.399 -3.62576 58.822
CA -29.5846 -9.86747 71.7123
CA 14.2907 -6.24068 54.4271
CA 3.31185 -11.3261 80.3599
CA -14.3274 -8.00098 44.1578
CA -22.2205 -0.356904 78.3367
CA 18.6775 -7.686 52.8717
CA -2.38225 6.29045 15.4022
CA 7.22779 9.54403 77.7436
CA 4.5222 11.3082 47.1368
CA -8.78913 -8.03665 67.2579
CA 15.2982 -31.2425 91.7778
CA -8.2726 5.33072 28.8209
CA -11.9254 -2.85612 66.0492
CA 10.8229 -21.3114 76.5722
CA 3.69744 -8.24405 60.3264
CA 16.7376 -8.86996 76.5273
CA -13.5244 9.41116 38.8971
CA -12.6262 -13.005 46.4286
CA 21.9197 -23.3633 83.7704
CA 7.74301 8.44433 59.5041
CA -24.457 -2.391 58.4784
CA -21.9423 -3.71647 80.5185
CA 9.09771 5.94813 47.8785
CA 4.08581 4.92768 78.4497
CA -14.1196 -13.194 79.6083
CA 6.69587 -13.1675 72.2954
CA -6.6079 8.69792 19.3051
CA 7.46534 14.4922 40.9898
CA 13.5148 -6.74486 48.6574
CA -3.98854 0.437265 59.6295
CA 11.5932 -9.84292 53.4648
CA -4.2368 13.0257 47.5704
CA -16.4729 1.9047 77.1377
CA 16.0385 -13.9635 88.1673
CA -15.3976 -0.818199 50.7959
CA 9.84767 -9.43958 83.9246
CA -20.4596 5.45993 45.298
CA 11.8435 -31.4099 85.3053
CA -10.7106 -0.688176 30.801
CA 6.35213 -14.8717 61.7322
CA 16.1068 11.13 74.5506
CA -0.80656 19.6387 68.0747
CA -18.9486 -1.78601 75.0386
CA -8.44231 10.2099 47.7478
CA -10.0333 -1.424 83.8866
CA 4.05815 7.17831 80.9133
CA -19.9578 2.19798 78.2485
CA 14.8849 9.71585 67.2332
CA -12.5619 23.6862 46.7002
CA 10.8083 5.84875 84.1293
CA 14.6624 13.8186 20.1444
CA -5.45757 7.34083 23.3146
CA -0.174346 13.0513 74.3778
CA 5.31776 0.327359 61.0821
CA -0.286925 13.9254 15.2759
CA -14.2112 -18.1566 81.6121
CA 22.6105 -18.5875 85.0212
CA 6.17684 11.8731 56.2587
CA -2.30899 -12.6916 54.4491
CA -0.221946 -8.03384 62.945
CA 12.8619 10.0042 66.4285
CA 11.6948 -18.2429 88.9323
CA -7.80806 13.261 76.3536
CA -21.6708 -16.1171 84.7866
CA -12.681 -7.27808 50.8977
CA 1.82638 12.1541 19.1419
CA 0.4567 17.295 17.2541
CA 15.0446 -24.5584 89.8797
CA 16.6602 15.2181 74.651
CA -8.85398 -6.55391 60.8936
CA 20.3301 -10.3801 53.3469
CA 8.63048 -15.8039 71.7037
CA 8.29597 11.1618 59.6222
CA -5.55026 -6.25922 63.3393
CA 7.52657 12.4711 72.197
CA -12.1557 -10.9564 78.3235
CA -16.3965 -15.7541 94.6119
CA -13.4103 -8.38221 78.0527
CA -13.1641 -8.7676 72.601
CA 13.8214 -21.0858 93.8726
CA -6.5368 -16.8812 72.7788
CA -6.00666 13.0185 79.943
CA 25.2452 16.1968 79.9738
CA -7.45193 2.24064 82.7057
CA 5.15039 -8.10195 77.4834
CA 22.443 -11.8133 46.0693
CA -7.90331 -11.9934 85.2958
CA -15.9746 -8.05677 77.3588
CA -3.29846 -10.8095 34.2923
CA -19.8474 3.6708 75.9791
CA 9.86833 -22.3649 74.9729
CA 5.63471 -4.43361 61.5104
CA -6.85352 4.05305 86.3369
CA 2.46197 -6.04249 60.466
CA -9.14619 0.64816 84.9902
CA 0.931185 12.3036 68.5875
CA 5.9592 5.03963 46.8209
CA 17.3379 -19.4114 98.1568
CA 8.91638 8.87708 14.6452
CA 11.3478 -24.7242 79.2646
CA 24.4976 -9.923 68.9698
CA 16.4677 -11.4818 84.604
CA 12.7447 11.2829 68.0785
CA -26.0442 1.23375 58.488
CA 6.60095 1.03125 55.4027
CA -9.45231 -13.0196 89.9086
CA -21.7647 -3.755 58.2981
CA 13.1786 7.115 65.2697
CA -1.29755 16.3721 44.7651
CA 7.97535 12.7707 58.3416
