489

CA 17.3953 6.44196 58.0135
CA 12.0153 16.6498 11.9585
CA 0.728084 -15.9732 60.2852
CA -3.85632 -2.65191 52.1632
CA -19.3663 -3.97119 39.5288
CA 13.8539 4.40116 58.609
CA 4.80075 -7.97092 66.6486
CA -32.6619 -10.1517 73.1603
CA -4.00702 -13.438 49.7204
CA -15.2886 -4.79576 75.8836
CA 17.6375 -8.68384 73.9955
CA 0.982969 -0.686271 48.1557
CA 8.36342 -9.13242 70.5764
CA -17.0201 3.73798 50.1906
CA 3.11882 21.9005 63.9795
CA 1.07736 -17.5682 70.7806
CA 6.87289 5.15434 66.519
CA 0.220128 -3.38993 45.8051
CA 5.77779 13.0791 74.9381
CA -3.6514 0.334853 36.3988
CA -13.1353 -1.68371 79.9124
CA 20.0098 19.3158 80.1022
CA 6.49989 -18.1294 47.2682
CA -11.3429 -4.88107 38.6506
CA -3.60211 -14.4796 44.0431
CA 1.33324 6.18103 57.4984
CA -28.4066 3.49355 68.3891
CA -5.5053 -13.0319 88.0865
CA -1.71702 20.6855 17.7747
CA 18.1334 -15.7752 53.3697
CA 3.63916 -0.00520649 63.9062
CA -6.44287 -9.64859 47.2569
CA -9.17245 16.4509 44.0042
CA 9.53466 17.277 18.1295
CA 20.4797 -7.70022 69.4059
CA 5.57362 0.76443 47.5513
CA -3.50705 -16.1951 44.9505
CA -1.33133 5.65111 26.1233
CA 5.14758 -7.04166 68.8904
CA -11.2687 -15.193 97.6008
CA -8.51946 -13.0489 76.1689
CA -11.8817 -3.31491 29.8657
CA -13.0078 -7.43031 51.8893
CA -2.19112 -8.59104 68.5357
CA -20.3557 2.14085 74.8878
CA -18.0276 -9.78135 79.6611
CA 1.33266 -4.79599 56.1319
CA 5.60648 11.7803 60.5508
CA -12.7428 -3.73361 62.0436
CA -3.07917 10.9383 17.5383
CA -0.990606 8.12475 21.4465
CA 8.9856 5.19031 15.092
CA 3.25395 -14.9337 58.846
CA 10.6974 9.92605 45.036
CA -7.89894 2.19903 63.2645
CA -5.09831 -12.2818 65.4865
CA 2.19585 -18.5992 50.1494
CA -14.404 -6.468 89.1206
CA 3.92893 -2.58147 49.7652
CA -29.1703 1.53849 70.7341
CA 7.68157 4.77971 16.4781
CA 17.0578 4.64644 59.2983
CA 0.576055 -12.9478 88.6616
CA 8.71581 14.4854 19.697
CA -19.1203 15.18 45.2847
CA -8.12828 -20.2535 78.5491
CA 17.8694 -29.7335 89.0179
CA 19.8249 19.9354 75.7388
CA -2.73716 20.8245 76.0673
CA 9.40439 0.43607 67.7037
CA -14.2584 7.71355 40.2519
CA 9.24997 -9.20726 60.6772
CA -7.48562 2.77587 32.1769
CA -16.3365 15.2743 48.8203
CA -5.1957 14.4756 17.5239
CA -6.68431 13.8048 13.649
CA 9.32054 13.7277 46.7831
CA -20.5846 -12.7393 72.5696
CA 13.7767 8.46221 58.9067
CA -4.62331 17.6018 14.9397
CA -15.7671 6.88801 43.6858
CA 4.82667 -3.29241 67.3731
CA 10.0517 12.3509 75.5187
CA -21.4748 -7.50296 46.9198
CA -9.13279 15.3478 40.8229
CA -17.7735 14.1844 46.9597
CA -7.58619 8.65487 77.4777
CA -18.7263 1.34185 42.1129
CA 8.29871 -16.9658 82.8711
CA 3.4588 19.0135 47.0571
CA -0.6512 -20.0365 77.4959
CA 0.623084 0.485374 57.3722
CA -22.1492 13.431 45.5716
CA -3.23428 1.63544 62.2486
CA 5.45228 -10.2922 88.9646
CA 8.06201 1.32086 61.3899
CA 6.66717 4.00517 61.8226
CA 14.1789 -14.9596 68.9084
CA -17.2369 3.00042 73.3857
CA 28.1241 -0.408647 72.9946
CA 9.11767 -24.4558 85.5533
CA 5.60154 -14.8667 79.4661
CA -16.5598 -10.3737 46.2197
CA 4.11497 2.27281 76.4211
CA 9.47711 3.81494 53.9847
CA 13.1595 -2.72652 67.8384
CA 1.19567 26.1789 68.734
CA -7.49346 15.0307 75.3771
CA 8.22178 3.42085 46.4461
CA -10.2362 -11.2368 94.4589
CA 4.67093 10.8742 70.1016
CA -6.34046 11.5903 16.382
CA -5.04233 -2.37257 69.4179
CA -0.720132 -13.1291 49.2453
CA 8.20558 11.5846 18.448
CA 11.1702 0.515601 65.2037
CA 1.96896 -1.11818 57.2672
CA -11.4126 -8.17176 91.2
CA -22.6235 -10.7251 75.9641
CA 0.2713 32.8722 64.888
CA -22.5332 3.26671 81.3161
CA 19.2952 -9.07471 79.4422
CA -17.5672 -3.75538 76.0746
CA 5.72853 -10.3669 77.998
CA 15.2132 -28.3125 92.0946
CA -9.37627 -21.064 92.3855
CA -1.80304 -16.6748 54.4566
CA -5.00523 1.69987 78.681
CA -16.3614 -6.43231 78.0434
CA 2.10939 4.67507 56.6617
CA -20.6884 -2.09528 79.6669
CA -13.1998 -11.6601 52.048
CA 9.97705 7.82749 61.2614
CA -1.2776 -9.31559 78.241
CA -25.5684 -7.70845 71.7339
CA 4.88395 11.8959 54.764
CA 21.3967 -5.56767 64.1238
CA 15.6781 -1.81234 69.72
CA 10.3033 -7.01155 79.0078
CA 21.5067 -10.8681 47.8415
CA -1.40374 -7.5696 83.2899
CA 10.0033 12.655 41.2959
CA 5.75314 11.419 65.3829
CA 4.45833 7.92525 10.6425
CA 5.15214 -3.74651 70.1956
CA -13.9681 -7.4449 42.2354
CA -31.4249 -10.3705 71.7937
CA -6.86706 -5.95797 77.1567
CA 7.42123 3.66421 77.3854
CA -4.03177 -20.9578 74.4894
CA 11.4906 -25.4077 95.5042
CA 18.7339 -6.03107 79.2244
CA -0.923396 -12.1346 77.5723
CA 5.42398 -2.49271 71.627
CA -2.25391 -13.1735 47.0307
CA -7.96791 -15.2395 49.0008
CA 3.92388 -1.45252 62.053
CA 3.43348 18.581 18.2551
CA 18.0147 7.19458 72.0098
CA -27.7945 -3.14236 61.8802
CA 4.61517 19.3893 71.1737
CA -13.4848 25.133 43.9127
CA 12.3465 3.04947 50.4248
CA 5.07416 -16.784 80.4928
CA 12.7476 -29.4072 86.5337
CA -7.16611 14.9148 49.7984
CA -4.85129 11.9589 14.8013
CA 26.0118 -25.546 85.7271
CA -23.5272 -0.765519 80.515
CA -2.96989 -9.56306 85.9805
CA 20.1075 23.1405 88.0566
CA 18.2355 -10.6888 83.6725
CA 2.41294 -5.80934 40.1627
CA -6.08441 -7.17516 35.7436
CA 12.6717 -25.2786 90.784
CA -9.64979 -6.14832 36.1831
CA -22.1391 -9.65092 59.7717
CA -12.1791 5.83304 61.2918
CA 2.97649 9.66271 44.4151
CA 19.2301 -0.547061 58.7947
CA -26.2555 12.7247 44.0145
CA 1.47058 12.7073 66.0533
CA -25.6271 0.0273682 73.8862
CA -14.9414 -2.46353 88.9214
CA -5.2904 14.3852 67.8445
CA 10.4963 -12.0231 53.8397
CA 5.21075 9.05071 44.7484
CA -7.22007 3.21539 60.9481
CA -22.8635 -12.6417 64.7335
CA -17.3191 -0.944139 51.7242
CA 4.35512 -0.928428 57.6596
CA -17.0651 -2.11478 70.2133
CA -13.8052 6.38643 36.3173
CA -2.05499 -2.70482 71.2773
CA -11.2794 14.9361 79.5779
CA 17.9901 -9.29368 81.2759
CA -11.9763 3.9179 77.6522
CA -5.08414 16.3706 67.0243
CA -6.00524 12.1909 48.3118
CA 2.08318 -9.82107 68.667
CA -0.448382 17.1568 67.445
CA 24.9922 -11.1673 66.866
CA -10.9319 -13.8947 46.1095
CA -4.1662 14.3423 74.8259
CA -15.1393 -8.46775 36.8183
CA -13.438 1.64869 78.7219
CA 24.2011 -9.31291 42.3957
CA 11.5107 3.48745 48.172
CA 16.4128 -18.9768 86.4096
CA -8.22336 16.5126 72.1261
CA -9.46761 4.74578 57.0546
CA 15.4708 7.44564 57.9497
CA -9.46031 -1.66829 66.8247
CA -2.20451 7.21695 14.663
CA 13.895 -7.46047 52.4841
CA 19.7963 -3.14727 54.2623
CA 0.862196 19.2474 61.3613
CA 10.4875 0.0554196 56.9465
CA -13.342 -10.0033 88.8138
CA 14.9601 -15.1709 86.3299
CA -6.71524 16.7516 42.264
CA 1.65948 13.6581 21.5377
CA -14.7027 2.34311 50.6465
CA 7.38189 -2.65326 47.0762
CA 10.7036 -26.7533 88.7618
CA -13.8301 -4.46725 37.9663
CA -8.16126 10.9051 14.9647
CA -25.1489 -4.66177 71.9689
CA 11.1907 2.2409 55.5008
CA -16.4037 -5.97298 91.4179
CA 9.22534 11.8412 45.1697
CA -25.7814 -1.14359 58.6883
CA -18.2165 -16.8367 84.8346
CA -4.06022 -9.58977 48.9839
CA -7.57007 0.105382 57.8257
CA 5.41214 -28.0306 77.139
CA -4.62632 3.38119 27.5241
CA 6.415 14.2362 68.1062
CA -15.6572 9.40553 44.7266
CA 11.8076 2.37622 17.1162
CA -4.02449 -13.7156 58.8311
CA -5.1366 10.9899 68.5536
CA -4.26546 -16.2943 93.9918
CA 5.34692 -16.1932 47.2588
CA 7.16134 11.4799 73.6788
CA 8.86242 3.10812 56.1835
CA 16.6197 -18.491 56.1324
CA 6.6762 -5.26297 75.8339
CA -29.6005 -11.3924 67.6659
CA 22.4374 -14.6379 53.437
CA 1.30555 -6.24696 77.7822
CA -5.68914 -12.3019 37.5319
CA -23.9025 -2.37588 82.1614
CA 8.53541 -17.6334 78.2221
CA 9.78065 -23.4795 89.4041
CA -32.274 -11.2176 68.8574
CA -10.314 22.7756 45.3797
CA 14.3776 -28.4354 97.5259
CA -10.4296 14.8901 42.9882
CA -0.399697 -18.2468 79.5372
CA -0.846578 -6.21835 51.6603
CA -15.1575 -0.695379 74.8956
CA -21.5991 -3.98736 83.1644
CA 12.3022 6.17048 61.7953
CA 7.0587 5.706 11.6442
CA -15.6117 -3.16457 50.2638
CA 0.129079 6.69027 27.469
CA -0.248383 -9.93305 80.6053
CA 7.98403 -2.2343 58.7162
CA 0.922789 -7.89509 66.5551
CA 7.54367 -10.2271 57.9929
CA 6.89124 -16.0306 80.1416
CA 7.9989 10.848 43.8721
CA -4.03662 -9.88988 88.8497
CA -24.1098 -10.5667 65.6434
CA -16.5164 1.43013 74.9711
CA -0.307243 11.6959 45.3695
CA -20.8346 9.33272 39.0662
CA -10.7972 19.7231 48.9192
CA -1.29671 -0.890145 39.0226
CA 10.6091 4.10083 52.2884
CA 0.52244 -6.35311 49.2411
CA -31.6867 -9.4357 76.9193
CA 3.47952 -3.59049 43.792
CA -22.5472 -5.25168 59.0005
CA -13.9852 -8.39442 46.4424
CA -4.70834 22.7891 67.5885
CA -17.3216 -8.45181 45.8806
CA 10.0601 0.403731 71.1245
CA 7.00797 14.4235 74.2895
CA -6.20559 2.10322 36.2561
CA 9.01604 -1.52492 60.0211
CA 10.7572 -27.9896 94.3744
CA -15.4399 -1.56354 78.8302
CA 20.3531 -25.8756 88.4568
CA -5.20568 1.62961 70.5331
CA 12.4598 11.2999 65.9399
CA -4.84147 -4.35788 53.0018
CA -17.8249 8.00086 50.6531
CA 9.61603 -3.51635 59.1406
CA -9.94288 -0.957388 71.2876
CA 0.737859 -7.99466 58.4399
CA -3.45457 -11.6831 44.7972
CA 9.6347 10.9024 15.5743
CA 4.18902 -9.81004 59.1027
CA 0.560413 15.3391 77.3531
CA -17.18 12.3411 51.3954
CA -3.43735 16.2012 76.7406
CA 16.2884 -13.4437 85.4194
CA 11.4661 13.6839 80.0229
CA -22.813 14.9038 47.1725
CA 10.3859 0.768817 59.6787
CA 22.6373 -4.8008 67.9355
CA 7.89157 -12.669 56.5569
CA -3.7766 2.65709 40.2468
CA 9.22765 -10.66 76.3504
CA 10.2302 14.708 55.1445
CA -22.8105 -0.595895 50.7997
CA -3.36689 13.8825 46.0506
CA 5.98357 -0.81828 62.7289
CA -0.439574 -2.20762 41.274
CA 6.19415 -7.7641 86.9723
CA -13.8312 -11.1433 76.3304
CA 15.8405 10.3984 70.0303
CA 26.8379 0.655851 75.6773
CA 21.3197 -4.02702 55.3018
CA 6.48091 -12.5885 49.1349
CA 3.61859 10.5159 13.4558
CA -0.478752 -3.0611 64.6191
CA 6.62943 -16.1342 65.6432
CA -8.47267 -5.34565 69.9344
CA -2.71014 11.7221 13.6762
CA 5.94002 -11.3672 51.9236
CA -1.73351 -2.66845 67.6357
CA -1.70651 -16.4702 49.5865
CA 9.84813 -2.4383 49.1274
CA -14.3618 -5.1593 65.6479
CA -21.7986 -14.6922 79.3648
CA -4.15947 15.3849 13.9112
CA 14.4004 -22.7397 87.0987
CA -11.1773 -9.18688 46.4067
CA -8.68446 -18.2424 93.9877
CA -6.18456 -11.5866 88.9676
CA 10.0993 2.93479 47.2006
CA 8.49696 -25.1524 79.0033
CA -8.17164 3.40137 70.4267
CA -1.18084 17.6913 47.2143
CA 25.234 -24.2764 88.8317
CA -0.0901247 -1.87884 68.102
CA -8.28129 0.150732 64.3553
CA 1.45772 -19.303 72.8297
CA -6.1564 9.26867 78.8197
CA -1.22301 -16.1573 74.5937
CA -9.66371 -2.2559 34.362
CA 8.1304 5.45721 45.6742
CA 8.72747 14.0765 68.6181
CA -12.2392 -13.0253 94.3782
CA -2.19977 -14.9112 52.5321
CA -10.1873 -7.43096 88.5796
CA 25.6236 -2.29595 70.0369
CA 12.2331 15.9621 15.8004
CA 3.38179 -15.2013 83.799
CA -8.67506 14.1974 45.9776
CA 7.78814 15.8557 68.2771
CA -17.63 -15.6835 68.8058
CA 1.33989 -15.8109 54.3389
CA 19.8094 -6.93432 55.4779
CA 1.68488 17.3278 73.7674
CA 0.0318541 24.6964 67.101
CA -12.1067 -9.96791 84.7855
CA -5.6747 8.47645 82.004
CA 1.79464 10.1349 15.4995
CA -17.5545 -5.16196 43.1352
CA 21.2427 -1.88104 70.7057
CA 6.35091 16.2916 74.6007
CA -10.7655 -21.1486 89.2862
CA 8.72485 -27.1472 81.9333
CA -13.6197 6.29107 43.0028
CA 24.6022 -10.1507 55.668
CA 8.10384 -21.4639 86.8642
CA -21.7197 -6.59595 61.7469
CA -26.7511 -16.5089 84.1422
CA -14.3274 -8.00098 44.1578
CA -22.2205 -0.356904 78.3367
CA -24.264 -10.1853 74.7512
CA -7.12928 0.142386 73.6522
CA 7.22779 9.54403 77.7436
CA -19.0525 -3.14379 41.3289
CA -8.6678 11.8611 80.9477
CA 15.2982 -31.2425 91.7778
CA 6.48437 -8.52097 49.5325
CA -26.4381 5.27323 70.3168
CA -15.7373 8.10736 50.8633
CA -16.9107 11.232 39.6664
CA 16.7376 -8.86996 76.5273
CA -10.6282 -7.09962 67.2344
CA -6.82953 -7.80468 78.7932
CA 13.3391 -22.107 91.5492
CA 5.96681 -0.847685 64.5554
CA -2.09803 -22.665 75.1066
CA -14.9991 19.9486 49.4668
CA 12.06 -15.5569 72.4385
CA -15.6564 -6.97033 50.5784
CA -10.7344 18.7008 42.289
CA -6.24641 -8.22925 85.9463
CA -3.23119 13.9105 18.9837
CA -19.7752 -3.56528 43.7101
CA -23.9762 -3.51454 59.3332
CA -18.2314 -6.81559 51.6586
CA 6.15076 23.4183 64.7242
CA 6.14411 2.03074 67.7451
CA 2.26151 -19.2878 56.498
CA 1.23628 28.4442 66.2528
CA -13.1121 8.41716 78.1286
CA 23.0575 22.2381 78.0365
CA -19.6805 -5.83984 49.2693
CA -4.68401 19.0649 45.921
CA -10.7106 -0.688176 30.801
CA -6.05304 -13.0017 93.8993
CA 10.8783 -0.00538898 50.4119
CA -12.3439 -12.0945 76.9953
CA -18.9486 -1.78601 75.0386
CA -8.44231 10.2099 47.7478
CA 16.5901 14.2807 78.5354
CA -12.3364 -13.0091 85.6868
CA -3.85283 -6.95777 49.4529
CA 14.8849 9.71585 67.2332
CA -28.0157 -9.80879 67.0117
CA -26.3817 -2.33552 59.9458
CA -4.84652 -8.89489 37.9828
CA -11.6919 14.6811 51.4681
CA -0.969696 0.82419 61.7759
CA 0.719227 12.6901 47.3343
CA -13.3646 -9.15796 48.3905
CA -14.3591 -12.9236 83.8899
CA 6.52487 -12.725 82.4313
CA 6.17684 11.8731 56.2587
CA -22.0953 -1.85779 41.5633
CA -13.6754 5.90109 75.944
CA 5.43045 -7.63039 63.9021
CA -5.21467 -18.006 76.9763
CA -16.5517 -0.528429 62.5973
CA 8.35417 -15.6155 69.086
CA 18.5716 -5.4212 55.2384
CA -2.35382 -1.12913 66.0818
CA -1.00635 -14.6687 47.3876
CA 1.97903 -0.16261 41.2967
CA -22.4688 -19.6039 84.7331
CA 18.9374 -8.26553 53.9982
CA 20.3301 -10.3801 53.3469
CA 8.63048 -15.8039 71.7037
CA 19.765 21.61 84.5128
CA 6.12553 -2.57646 74.6458
CA -0.0447084 13.4547 14.3473
CA -11.0358 -17.7364 90.902
CA 10.2719 -16.1524 74.1405
CA -13.4103 -8.38221 78.0527
CA -6.70608 -13.2269 47.8385
CA 0.228213 7.61893 66.878
CA -6.5368 -16.8812 72.7788
CA -6.00666 13.0185 79.943
CA 25.2452 16.1968 79.9738
CA -19.2879 -2.61208 63.2499
CA -19.4396 -20.0372 69.0054
CA 22.443 -11.8133 46.0693
CA 15.905 12.1523 69.6115
CA -15.9746 -8.05677 77.3588
CA 8.01136 -20.9216 88.9594
CA 14.9671 1.34787 60.2694
CA -0.104266 5.02996 67.6874
CA -25.4891 -13.4204 87.0415
CA 10.4393 8.90015 42.8239
CA 2.89651 18.1064 70.8001
CA -2.80584 13.1266 75.6572
CA 17.0246 -12.1717 78.6907
CA -3.68437 -18.0952 74.076
CA 2.03149 18.3692 64.2414
CA -4.51534 15.5059 20.8094
CA 20.2274 16.7772 82.0161
CA 24.4976 -9.923 68.9698
CA -4.38639 -10.7116 38.2414
CA -3.83898 -14.0172 92.5087
CA -14.4242 -12.5568 94.2931
CA -23.316 -17.3945 85.9724
CA 5.40621 1.99439 64.3968
CA 12.6658 -15.2623 57.1259
CA -0.423865 -4.76884 57.4733
CA 18.8558 -5.01911 66.3408
CA -3.14498 13.6808 78.0575
