489

CA 17.3953 6.44196 58.0135
CA -12.1847 -3.37 68.4532
CA 10.5839 -10.3917 62.0203
CA -16.0531 -0.972907 55.9805
CA -8.35214 -14.6432 94.8327
CA 4.6159 -0.679342 60.0467
CA 4.80075 -7.97092 66.6486
CA -9.5945 12.1964 13.3048
CA 8.98194 10.1643 56.9295
CA 7.07308 -15.1913 70.4862
CA 17.6375 -8.68384 73.9955
CA 0.982969 -0.686271 48.1557
CA 9.53917 -3.68735 77.2447
CA 4.0758 11.739 73.889
CA 3.11882 21.9005 63.9795
CA -9.49598 20.1098 50.6499
CA 6.87289 5.15434 66.519
CA 17.9524 -5.50869 84.5713
CA -9.27524 -2.61193 42.4317
CA -3.05476 -6.19036 83.3145
CA -13.8379 -3.33409 75.8148
CA 20.0098 19.3158 80.1022
CA 6.49989 -18.1294 47.2682
CA -11.3429 -4.88107 38.6506
CA -7.96754 22.3933 51.8275
CA 1.33324 6.18103 57.4984
CA -13.1228 -0.180694 35.6834
CA -5.5053 -13.0319 88.0865
CA -5.18193 15.7103 43.523
CA 22.5136 -6.65235 69.3924
CA 7.8808 8.29428 48.6028
CA 3.97358 -5.32675 50.3485
CA -6.68177 2.66667 29.5233
CA 9.53466 17.277 18.1295
CA 20.4797 -7.70022 69.4059
CA 24.2107 -7.33889 45.3911
CA 27.9882 -12.7061 67.9923
CA -25.2138 -10.1371 64.0746
CA 22.0885 -10.0555 68.6447
CA -11.2687 -15.193 97.6008
CA -8.8483 -0.769776 60.7503
CA -11.8817 -3.31491 29.8657
CA -22.3819 -14.0459 80.9524
CA 14.1173 -24.0662 89.3627
CA -28.8754 -0.386465 68.5258
CA -8.23417 -18.2409 58.9154
CA -1.51389 -16.2803 93.2827
CA 5.60648 11.7803 60.5508
CA -1.27423 13.3636 46.115
CA -17.4888 15.8102 46.1867
CA 10.8792 -24.885 79.8264
CA 8.9856 5.19031 15.092
CA -12.4645 -7.4412 88.4639
CA 10.6974 9.92605 45.036
CA -7.89894 2.19903 63.2645
CA 3.49048 17.9756 78.481
CA 17.0907 6.61686 54.3898
CA -26.4252 -10.1098 71.1732
CA 1.55927 13.8323 45.6192
CA -29.1703 1.53849 70.7341
CA 1.01458 -2.87575 66.5761
CA 5.0213 -10.9862 66.8359
CA 5.37532 3.64796 55.5817
CA 8.71581 14.4854 19.697
CA 2.84669 -26.871 93.7857
CA 1.54844 -14.5463 80.2153
CA 17.8694 -29.7335 89.0179
CA -2.65249 -6.28209 87.2442
CA 0.741837 -7.27688 85.7756
CA -14.0785 -14.2574 92.7911
CA -14.2584 7.71355 40.2519
CA 9.24997 -9.20726 60.6772
CA -7.48562 2.77587 32.1769
CA -16.3365 15.2743 48.8203
CA -5.1957 14.4756 17.5239
CA 5.62919 2.76103 72.1934
CA -7.09227 11.268 69.5801
CA -20.5846 -12.7393 72.5696
CA 13.7767 8.46221 58.9067
CA -1.87097 3.68539 56.8378
CA -16.1026 2.23472 38.1106
CA -30.2318 -10.734 75.0629
CA 10.0517 12.3509 75.5187
CA -21.4748 -7.50296 46.9198
CA -9.13279 15.3478 40.8229
CA -17.7735 14.1844 46.9597
CA 9.78897 -13.6872 70.6919
CA -19.1648 0.668497 46.2926
CA -11.3237 23.7714 48.9245
CA 3.42909 2.23842 65.7559
CA -5.08855 8.81985 20.9256
CA -6.17718 -13.3959 64.5534
CA -12.9745 5.42422 39.7591
CA 1.59851 10.1366 24.1429
CA 5.45228 -10.2922 88.9646
CA -11.2112 -15.2378 77.7197
CA -15.3058 8.90025 75.1704
CA -19.9578 -0.95893 48.6273
CA -17.2369 3.00042 73.3857
CA 28.1241 -0.408647 72.9946
CA -19.3131 20.5671 49.9406
CA 5.61784 -25.9057 91.3591
CA -4.08733 -2.79571 71.8166
CA 4.11497 2.27281 76.4211
CA -3.26558 4.55662 61.4661
CA 10.6121 14.2703 21.2948
CA 2.98392 -17.6791 48.0659
CA -2.63675 1.13379 53.5188
CA -14.331 -10.1903 49.1843
CA -9.98478 3.21375 68.9676
CA 4.67093 10.8742 70.1016
CA -6.34046 11.5903 16.382
CA -11.9765 -16.8643 77.4011
CA -0.720132 -13.1291 49.2453
CA -6.38798 0.409665 64.8573
CA -9.77453 1.12497 47.9458
CA 8.88328 -16.828 75.1324
CA -11.7547 20.8869 50.0697
CA -22.6235 -10.7251 75.9641
CA 4.17844 -15.9645 81.8756
CA 2.91404 -4.80131 63.433
CA 19.2952 -9.07471 79.4422
CA -8.33398 8.20386 79.3953
CA -9.15339 -5.71489 39.3374
CA 15.2132 -28.3125 92.0946
CA -9.37627 -21.064 92.3855
CA -1.80304 -16.6748 54.4566
CA -5.00523 1.69987 78.681
CA -23.6068 -5.63872 61.2144
CA 2.10939 4.67507 56.6617
CA -2.01565 24.7482 46.6077
CA -2.21772 0.452699 58.8333
CA 9.97705 7.82749 61.2614
CA -8.58863 -6.85455 85.2285
CA -6.46763 10.4486 67.1401
CA -15.1405 -0.558682 54.0621
CA 18.0686 -1.21089 74.1016
CA 6.43861 20.6905 21.6955
CA 10.3033 -7.01155 79.0078
CA 21.5067 -10.8681 47.8415
CA 20.2376 11.2822 79.5886
CA -1.13128 20.1835 67.2075
CA 5.75314 11.419 65.3829
CA 4.45833 7.92525 10.6425
CA -4.65084 -8.21622 88.9067
CA -3.02817 -15.0074 72.9178
CA -31.4249 -10.3705 71.7937
CA 1.53088 -3.55992 58.7156
CA 24.2263 -5.62241 46.7099
CA -4.03177 -20.9578 74.4894
CA -19.9587 -11.5322 73.8516
CA -29.1565 -0.874875 75.2508
CA -14.6823 -3.26878 67.416
CA -1.57495 -6.20134 58.944
CA -7.50575 -11.7912 64.7141
CA -21.864 -3.13091 75.152
CA 3.92388 -1.45252 62.053
CA 3.43348 18.581 18.2551
CA -24.3363 -2.11294 72.044
CA 0.269081 -8.09723 53.7491
CA -1.3791 11.7711 15.0901
CA 15.7419 -16.6405 84.678
CA 3.12292 -9.13623 57.6101
CA -21.6468 3.67365 74.9844
CA -9.64918 -4.54683 74.0054
CA -10.7794 1.87224 76.6335
CA -6.03123 22.5772 49.3921
CA 4.40436 16.2832 81.6454
CA -3.4132 11.3965 19.5987
CA -2.96989 -9.56306 85.9805
CA -3.10679 -15.8386 57.0702
CA 2.34517 14.7094 75.3676
CA -19.3249 6.75549 48.9119
CA -17.7546 6.76684 52.016
CA 12.6717 -25.2786 90.784
CA -9.64979 -6.14832 36.1831
CA 12.85 -14.3714 55.5266
CA -1.71118 18.7444 16.5642
CA 2.97649 9.66271 44.4151
CA 19.2301 -0.547061 58.7947
CA 1.18361 -2.55866 63.0555
CA 1.47058 12.7073 66.0533
CA -25.6271 0.0273682 73.8862
CA -14.9414 -2.46353 88.9214
CA -5.2904 14.3852 67.8445
CA -7.73824 1.78835 65.449
CA 5.21075 9.05071 44.7484
CA -7.22007 3.21539 60.9481
CA -22.8635 -12.6417 64.7335
CA -17.3191 -0.944139 51.7242
CA 0.159657 -4.38316 84.3513
CA -12.761 -5.51541 35.6346
CA -13.8052 6.38643 36.3173
CA -2.05499 -2.70482 71.2773
CA -7.0329 4.06622 34.5629
CA 17.9901 -9.29368 81.2759
CA 22.8333 -10.1428 78.9931
CA -0.4578 -14.0218 78.714
CA 7.88642 2.24882 52.3177
CA 8.10157 -11.1722 82.6626
CA -0.448382 17.1568 67.445
CA 24.9922 -11.1673 66.866
CA -25.4448 -3.85033 62.5765
CA -3.03029 -17.1994 69.929
CA 11.6521 -1.83394 59.0484
CA 17.7309 0.930387 76.0974
CA -7.0443 -0.071527 29.4187
CA 11.5107 3.48745 48.172
CA 16.4128 -18.9768 86.4096
CA 1.19771 -14.3831 50.6702
CA 5.01444 -20.0981 43.6515
CA 15.4708 7.44564 57.9497
CA -0.246477 12.8915 22.1293
CA 7.18701 14.9505 55.4215
CA 13.895 -7.46047 52.4841
CA 5.40005 21.1914 63.0139
CA 0.862196 19.2474 61.3613
CA 16.1071 -13.0182 83.4754
CA -3.23225 -10.3683 61.7511
CA 14.9601 -15.1709 86.3299
CA -6.71524 16.7516 42.264
CA 1.65948 13.6581 21.5377
CA -14.7027 2.34311 50.6465
CA 7.38189 -2.65326 47.0762
CA 16.6875 -13.7597 81.7169
CA -13.8301 -4.46725 37.9663
CA 18.7895 -9.25136 77.0277
CA 10.2793 -23.2702 78.8559
CA 11.1907 2.2409 55.5008
CA 6.62679 0.657577 75.8824
CA 9.22534 11.8412 45.1697
CA -25.7814 -1.14359 58.6883
CA -18.2165 -16.8367 84.8346
CA -1.33684 -12.386 53.7994
CA 8.62916 6.70965 43.0513
CA -25.0445 -18.448 87.7214
CA -4.62632 3.38119 27.5241
CA 6.415 14.2362 68.1062
CA -15.6572 9.40553 44.7266
CA 11.8076 2.37622 17.1162
CA -4.02449 -13.7156 58.8311
CA -5.1366 10.9899 68.5536
CA -4.26546 -16.2943 93.9918
CA 5.34692 -16.1932 47.2588
CA 0.0683372 20.6272 45.6319
CA 8.86242 3.10812 56.1835
CA -1.53193 -6.15457 80.3813
CA 6.6762 -5.26297 75.8339
CA 17.7226 -5.50238 68.3353
CA -1.4555 -11.0204 67.2381
CA 12.6407 -13.0733 83.9711
CA 0.457516 -4.60108 66.9518
CA 7.44147 -21.0764 79.1742
CA 8.53541 -17.6334 78.2221
CA -16.5906 18.019 46.178
CA 6.74975 12.0424 54.4397
CA 9.60727 10.746 60.5528
CA 17.2353 -6.81038 55.8411
CA -10.4296 14.8901 42.9882
CA -23.0607 -13.7356 66.6412
CA -0.846578 -6.21835 51.6603
CA 12.8921 -21.5233 89.7735
CA -1.92884 -14.5526 93.7729
CA 12.3022 6.17048 61.7953
CA -13.6781 -11.5028 91.5779
CA -15.6117 -3.16457 50.2638
CA 0.129079 6.69027 27.469
CA -0.248383 -9.93305 80.6053
CA 7.98403 -2.2343 58.7162
CA 0.922789 -7.89509 66.5551
CA -9.17588 2.222 72.2742
CA 6.89124 -16.0306 80.1416
CA 20.1851 -5.90594 53.8423
CA 5.50674 5.97183 76.9978
CA -10.4637 -14.8986 94.0084
CA -11.9494 12.6154 83.1726
CA -0.449004 -3.84096 71.3035
CA 7.6126 -2.44594 56.4625
CA -10.7972 19.7231 48.9192
CA -5.31906 -17.4994 60.2377
CA 10.6091 4.10083 52.2884
CA 0.834193 9.64199 12.1307
CA 3.92126 -6.6536 55.9657
CA 3.47952 -3.59049 43.792
CA -16.4339 0.474084 49.2898
CA 5.35874 11.659 47.9179
CA -4.70834 22.7891 67.5885
CA -17.3216 -8.45181 45.8806
CA -5.5408 -14.5784 74.2775
CA 7.00797 14.4235 74.2895
CA -18.9624 -5.68347 69.1629
CA 9.01604 -1.52492 60.0211
CA 10.7572 -27.9896 94.3744
CA -15.4399 -1.56354 78.8302
CA 20.3531 -25.8756 88.4568
CA 11.5454 19.7589 17.4085
CA 12.4598 11.2999 65.9399
CA -3.9766 11.8209 44.5528
CA -17.8249 8.00086 50.6531
CA 9.61603 -3.51635 59.1406
CA -14.2704 -6.01776 90.1246
CA 0.737859 -7.99466 58.4399
CA -3.45457 -11.6831 44.7972
CA 9.6347 10.9024 15.5743
CA -1.77569 -2.13474 39.5788
CA 3.3907 0.234185 73.0739
CA 6.50664 -11.2684 81.2515
CA -3.43735 16.2012 76.7406
CA -2.83592 11.8947 24.8379
CA 11.4661 13.6839 80.0229
CA -0.67819 19.3915 70.6465
CA 27.1223 -9.57553 70.4528
CA -9.00185 -10.726 66.6593
CA 7.89157 -12.669 56.5569
CA -7.48865 -10.604 93.8063
CA 15.249 12.2148 78.3136
CA 14.3916 -8.15715 72.9364
CA -17.6002 -2.96545 44.437
CA 9.88395 -8.91835 80.8279
CA 5.98357 -0.81828 62.7289
CA -0.439574 -2.20762 41.274
CA 6.19415 -7.7641 86.9723
CA -16.4482 -1.21129 39.6148
CA 7.59365 12.7494 73.5567
CA -2.92358 -10.5958 68.6573
CA 21.3197 -4.02702 55.3018
CA -0.779149 -4.53164 47.1835
CA 3.61859 10.5159 13.4558
CA -16.3432 -8.53691 93.7906
CA -15.6621 -5.56126 45.7083
CA -5.1606 -8.92151 87.2195
CA -2.71014 11.7221 13.6762
CA 5.94002 -11.3672 51.9236
CA -1.73351 -2.66845 67.6357
CA 5.78566 1.3335 60.8056
CA 9.84813 -2.4383 49.1274
CA 10.9054 0.703645 47.1978
CA 8.4135 1.63903 19.064
CA -4.15947 15.3849 13.9112
CA 2.02157 -2.7589 48.6412
CA 22.1835 12.6061 82.1242
CA -8.68446 -18.2424 93.9877
CA -9.21583 -0.986789 74.618
CA 10.0993 2.93479 47.2006
CA 8.49696 -25.1524 79.0033
CA -8.17164 3.40137 70.4267
CA -0.870574 16.0497 24.5706
CA -5.27357 8.76157 19.0604
CA -11.6208 11.0805 75.249
CA 0.833313 -9.21467 56.7619
CA 24.0855 -13.8826 52.0699
CA -6.1564 9.26867 78.8197
CA -1.22301 -16.1573 74.5937
CA 18.4192 -8.38469 57.2906
CA 4.42241 8.62309 15.19
CA 8.72747 14.0765 68.6181
CA -8.49318 -9.96696 82.4749
CA 8.58714 -18.1029 47.4139
CA -5.07048 -14.8087 87.8482
CA 25.6236 -2.29595 70.0369
CA -10.2468 13.4732 46.8381
CA -8.8241 -16.3197 59.8233
CA -8.67506 14.1974 45.9776
CA 7.78814 15.8557 68.2771
CA -17.63 -15.6835 68.8058
CA -11.333 -6.1339 42.5248
CA 11.0349 -20.3737 48.9192
CA 1.68488 17.3278 73.7674
CA -2.08621 1.091 55.3259
CA 9.06639 -7.31554 59.687
CA -31.33 1.52319 73.2869
CA 19.2302 -2.19187 72.513
CA 11.4316 19.3632 15.4409
CA 21.2427 -1.88104 70.7057
CA -11.9612 -16.3943 86.4525
CA 3.32202 4.36127 9.94911
CA 9.29269 4.98714 59.8124
CA 22.0455 -10.9751 72.411
CA 1.3033 2.13547 55.1579
CA -26.7616 -12.9609 63.3115
CA -21.7197 -6.59595 61.7469
CA 6.33004 -21.1837 76.1846
CA -16.6674 -0.522168 47.2306
CA -3.69824 22.5608 69.2918
CA -24.264 -10.1853 74.7512
CA -7.12928 0.142386 73.6522
CA 2.10713 -1.9067 69.4847
CA -19.0525 -3.14379 41.3289
CA -8.6678 11.8611 80.9477
CA 6.25357 1.58317 57.205
CA 23.4603 -6.30243 66.7725
CA -21.9755 -3.53063 40.6313
CA -15.7373 8.10736 50.8633
CA -16.9107 11.232 39.6664
CA 16.7376 -8.86996 76.5273
CA 5.20088 -18.5387 82.1402
CA 9.02733 -28.3357 89.7651
CA 5.64038 0.16926 49.7067
CA -24.5405 -13.4088 65.5691
CA -2.09803 -22.665 75.1066
CA -14.9991 19.9486 49.4668
CA 12.06 -15.5569 72.4385
CA -15.6564 -6.97033 50.5784
CA -3.2029 1.56781 37.6368
CA -6.24641 -8.22925 85.9463
CA -3.23119 13.9105 18.9837
CA -6.27729 21.0037 53.4323
CA -23.9762 -3.51454 59.3332
CA -9.47669 -12.5036 92.5655
CA 14.1912 10.8195 16.6698
CA 6.14411 2.03074 67.7451
CA -2.59307 -6.18131 65.8865
CA -23.23 -12.6103 80.1061
CA -13.1121 8.41716 78.1286
CA 12.1484 -1.73323 45.7513
CA -19.6805 -5.83984 49.2693
CA -4.68401 19.0649 45.921
CA -10.7106 -0.688176 30.801
CA 0.0774821 14.3457 17.2556
CA -13.827 2.53699 55.2839
CA -12.3439 -12.0945 76.9953
CA -18.9486 -1.78601 75.0386
CA 4.08403 7.43822 55.089
CA 16.5901 14.2807 78.5354
CA -12.3364 -13.0091 85.6868
CA -4.70957 2.19539 30.048
CA -26.1561 -11.4149 65.5235
CA -3.11588 -9.49508 83.6017
CA -26.3817 -2.33552 59.9458
CA 19.5188 -16.2202 84.9291
CA -11.6919 14.6811 51.4681
CA -5.17122 0.0390482 75.93
CA 0.719227 12.6901 47.3343
CA -9.45171 -16.1908 97.2613
CA -14.3591 -12.9236 83.8899
CA -20.5578 -1.79574 73.3361
CA 6.17684 11.8731 56.2587
CA -6.69509 -2.04727 49.3221
CA -14.8445 1.91452 53.8213
CA -1.11146 17.3847 18.1371
CA 15.5824 -11.1877 80.5524
CA -10.4744 1.2756 68.7068
CA 5.89026 9.78824 61.6136
CA 18.5716 -5.4212 55.2384
CA 9.96021 -4.34636 57.0572
CA -5.64329 -6.4914 51.3651
CA 26.4761 -14.2034 67.6148
CA -18.2814 -12.9553 81.1506
CA -1.42097 -5.04321 72.5941
CA 20.3301 -10.3801 53.3469
CA -0.451583 9.53304 22.9482
CA 8.83556 -8.08432 86.1386
CA 6.12553 -2.57646 74.6458
CA -0.0447084 13.4547 14.3473
CA -6.27893 -11.088 66.9921
CA -2.22595 -18.6676 70.8099
CA -2.92977 14.4404 41.5368
CA -22.4851 2.71794 76.9878
CA -5.56651 19.8066 41.4828
CA 6.72935 19.5982 78.3071
CA -7.82258 -13.1181 57.983
CA -3.33509 19.9246 48.7357
CA -8.89411 -6.62589 28.9495
CA 8.24197 9.03589 59.5709
CA -8.96331 -10.5891 91.6792
CA 5.67149 -2.04298 50.7036
CA -15.9746 -8.05677 77.3588
CA -0.280711 18.4653 60.1064
CA 14.9671 1.34787 60.2694
CA -0.104266 5.02996 67.6874
CA -14.4616 5.70244 48.9016
CA -11.6187 -10.1681 82.8939
CA -11.3456 10.0929 42.6914
CA -1.16306 -7.27291 48.9138
CA 25.0334 -10.7046 83.5076
CA -18.3387 17.21 51.5029
CA -1.97211 17.8089 77.1471
CA -2.36971 -12.0726 65.8096
CA 20.2274 16.7772 82.0161
CA 24.4976 -9.923 68.9698
CA 12.6339 1.47405 60.0375
CA 13.0613 -2.24078 49.6067
CA -14.4242 -12.5568 94.2931
CA -23.316 -17.3945 85.9724
CA -1.53244 3.10631 63.5425
CA 12.6658 -15.2623 57.1259
CA -22.4311 -3.90495 70.0671
CA 18.8558 -5.01911 66.3408
CA -3.14498 13.6808 78.0575
