489

CA 17.3953 6.44196 58.0135
CA -9.70626 18.663 49.999
CA 10.5839 -10.3917 62.0203
CA -16.0531 -0.972907 55.9805
CA 16.2962 -14.5994 86.4468
CA -4.63558 -5.23194 70.8878
CA -2.00953 -17.1945 55.8192
CA -23.9136 -0.203326 75.1311
CA 17.5385 -7.87793 82.3416
CA 7.07308 -15.1913 70.4862
CA 17.6375 -8.68384 73.9955
CA 4.85235 -13.1255 79.2867
CA 9.53917 -3.68735 77.2447
CA 4.0758 11.739 73.889
CA 13.2657 -14.0464 87.2282
CA -6.05026 6.01914 28.3662
CA 6.87289 5.15434 66.519
CA 5.03966 -5.55138 88.242
CA -9.27524 -2.61193 42.4317
CA -33.3191 0.00657258 72.6607
CA -5.16026 20.39 47.4519
CA 2.69367 -4.9706 82.2467
CA 6.49989 -18.1294 47.2682
CA 0.749823 9.38395 70.1048
CA -7.96754 22.3933 51.8275
CA -22.0634 1.0773 79.1856
CA -24.1092 6.32012 45.5395
CA -5.5053 -13.0319 88.0865
CA -5.18193 15.7103 43.523
CA 3.96673 6.00065 11.1288
CA -2.6801 -4.07963 37.0561
CA 8.87822 15.5711 23.6279
CA -18.4573 -8.32367 33.7132
CA 9.53466 17.277 18.1295
CA 20.4797 -7.70022 69.4059
CA -10.492 -0.551702 52.1909
CA 27.9882 -12.7061 67.9923
CA 9.44694 -5.49064 60.9714
CA -4.61452 4.26146 64.814
CA -24.0632 -0.973372 65.4914
CA -8.8483 -0.769776 60.7503
CA 10.3423 -32.4925 83.6787
CA -22.3819 -14.0459 80.9524
CA 14.1173 -24.0662 89.3627
CA -11.79 8.61645 84.4502
CA 12.0103 6.58221 66.5717
CA 12.0938 3.17921 70.2569
CA 0.415442 -5.46312 84.7264
CA -10.6341 5.05155 76.9748
CA 2.27171 13.6182 41.6715
CA 1.42673 -8.54307 79.9735
CA 8.9856 5.19031 15.092
CA -0.716059 2.17106 39.9271
CA 14.7513 -12.2123 55.7419
CA -8.5569 -1.47454 40.7466
CA -10.4844 -17.71 59.8978
CA 17.0907 6.61686 54.3898
CA 16.7459 -2.52239 70.6713
CA 2.82671 17.4756 62.443
CA -29.1703 1.53849 70.7341
CA -0.068577 -4.12961 82.1348
CA -30.7439 -0.776041 77.7431
CA -0.873965 6.27356 38.3884
CA 5.91815 -0.484112 68.2632
CA 1.53386 -10.3002 82.8723
CA 1.54844 -14.5463 80.2153
CA 17.8694 -29.7335 89.0179
CA -0.878586 15.5746 77.3066
CA 0.741837 -7.27688 85.7756
CA 23.0015 -25.7031 88.8801
CA -14.2584 7.71355 40.2519
CA 9.24997 -9.20726 60.6772
CA 10.5943 -9.80981 84.648
CA -16.3365 15.2743 48.8203
CA -5.1957 14.4756 17.5239
CA 5.62919 2.76103 72.1934
CA 12.5716 6.01879 48.5111
CA -20.5846 -12.7393 72.5696
CA 21.0867 4.04235 75.5869
CA 10.0574 2.48108 68.102
CA -3.04465 -19.353 92.542
CA -30.2318 -10.734 75.0629
CA 10.0517 12.3509 75.5187
CA -21.4803 -5.42473 63.809
CA -9.13279 15.3478 40.8229
CA -17.7735 14.1844 46.9597
CA 7.26562 14.1005 50.8543
CA -4.50031 20.0074 65.6173
CA -11.3237 23.7714 48.9245
CA -9.73438 -4.9108 88.6631
CA 17.6556 -9.01036 78.4218
CA -20.4065 15.7819 47.8992
CA -12.9745 5.42422 39.7591
CA 18.4648 -11.1123 60.7449
CA 5.45228 -10.2922 88.9646
CA 4.91822 -13.147 77.2744
CA -0.997529 -11.1711 67.2342
CA 25.1413 -6.65613 47.9165
CA -6.03399 6.97611 32.1896
CA -0.819441 8.09268 53.6425
CA -26.7284 -9.35635 75.6189
CA 8.87763 2.94509 65.6685
CA 3.82242 9.16224 46.9208
CA 0.544464 7.73702 62.4701
CA -3.26558 4.55662 61.4661
CA 10.6121 14.2703 21.2948
CA 2.98392 -17.6791 48.0659
CA -13.8252 7.54082 82.2147
CA -3.99502 10.3298 76.7423
CA 6.36203 -5.94065 81.9248
CA -25.2549 -9.52751 77.5057
CA -6.34046 11.5903 16.382
CA -9.61619 -2.59949 71.1768
CA -0.720132 -13.1291 49.2453
CA -22.6298 -11.5025 74.138
CA -5.41508 10.8374 20.8534
CA 8.88328 -16.828 75.1324
CA -11.7547 20.8869 50.0697
CA -9.80308 8.64333 75.3164
CA 13.4567 -12.8778 79.5
CA 15.8228 -13.0044 90.9251
CA 0.510001 -6.19562 51.2285
CA -8.33398 8.20386 79.3953
CA -9.15339 -5.71489 39.3374
CA 15.2132 -28.3125 92.0946
CA 6.98716 13.5683 21.2469
CA -34.3319 -14.1417 75.6254
CA 27.8436 -2.18122 73.3325
CA -13.1133 -2.12476 61.8242
CA -7.96627 2.57256 75.2589
CA 1.93811 -17.4577 54.1547
CA 1.93402 -3.61006 40.1718
CA 9.97705 7.82749 61.2614
CA -8.58863 -6.85455 85.2285
CA 10.9319 -9.97876 58.6578
CA 16.3966 -10.2007 69.8971
CA 18.0686 -1.21089 74.1016
CA -3.75703 -19.551 90.7306
CA 2.80044 14.6873 81.001
CA 21.5067 -10.8681 47.8415
CA 20.2376 11.2822 79.5886
CA 6.41534 14.3489 19.6517
CA -20.2781 -8.16548 50.5017
CA 4.45833 7.92525 10.6425
CA -4.65084 -8.21622 88.9067
CA -19.3807 6.2838 44.4827
CA 8.06641 1.53657 59.1212
CA 7.69457 -13.3747 79.7279
CA 24.2263 -5.62241 46.7099
CA -4.03177 -20.9578 74.4894
CA 16 -8.55112 75.1514
CA 9.33595 -18.2881 44.5576
CA -12.9004 -12.4193 73.5133
CA -1.32786 19.1545 66.0628
CA -7.50575 -11.7912 64.7141
CA -4.44891 24.543 66.5586
CA -4.7953 12.6549 18.2776
CA 3.43348 18.581 18.2551
CA -24.3363 -2.11294 72.044
CA 0.269081 -8.09723 53.7491
CA 11.3044 -23.4958 86.4558
CA -20.3935 -16.9289 89.4276
CA -15.6913 -6.06558 33.6068
CA -20.6074 -13.1669 67.514
CA -9.64918 -4.54683 74.0054
CA -15.4722 7.74652 47.089
CA -15.9173 -10.6291 73.7364
CA -4.42673 11.1095 14.8774
CA -3.4132 11.3965 19.5987
CA 0.829684 20.4612 69.9945
CA -3.10679 -15.8386 57.0702
CA -18.6423 -2.80085 55.2825
CA -19.3249 6.75549 48.9119
CA -12.561 -2.05147 50.7243
CA 21.2063 15.1885 78.9112
CA -9.64979 -6.14832 36.1831
CA -3.11639 -4.02577 48.7432
CA -1.71118 18.7444 16.5642
CA 8.08675 4.05723 54.1583
CA 19.2301 -0.547061 58.7947
CA 3.90637 -1.71552 54.3104
CA 1.47058 12.7073 66.0533
CA -25.6271 0.0273682 73.8862
CA 3.67402 1.99222 58.1485
CA -5.2904 14.3852 67.8445
CA 25.871 -7.07652 72.0983
CA 5.21075 9.05071 44.7484
CA -7.22007 3.21539 60.9481
CA -22.8635 -12.6417 64.7335
CA 13.2993 -25.3384 78.8299
CA 18.6598 -2.35877 53.3264
CA -12.761 -5.51541 35.6346
CA -13.8052 6.38643 36.3173
CA 5.15452 4.6977 60.1943
CA 12.9233 11.8997 81.9465
CA 17.9901 -9.29368 81.2759
CA 22.8333 -10.1428 78.9931
CA -12.1625 -9.86791 76.547
CA 7.88642 2.24882 52.3177
CA 8.10157 -11.1722 82.6626
CA -0.448382 17.1568 67.445
CA -2.30429 22.8295 66.9918
CA -25.4448 -3.85033 62.5765
CA 0.123373 -12.0478 77.4664
CA -3.43454 0.297129 54.7762
CA 17.7309 0.930387 76.0974
CA -7.0443 -0.071527 29.4187
CA -21.6897 4.15918 71.1886
CA 16.4128 -18.9768 86.4096
CA 1.19771 -14.3831 50.6702
CA 6.28505 8.50302 15.9267
CA 15.4708 7.44564 57.9497
CA -14.738 -12.7264 46.1802
CA 7.18701 14.9505 55.4215
CA -25.3285 -12.4147 82.3503
CA 3.2561 -5.93412 66.0582
CA 0.375956 11.3068 11.3877
CA 9.73213 -19.1019 78.351
CA 7.98623 9.68386 12.7804
CA 3.97545 15.5357 16.6078
CA -6.71524 16.7516 42.264
CA 3.58651 -20.277 79.8124
CA -14.7027 2.34311 50.6465
CA -2.36259 -17.3916 72.6108
CA -7.5415 -6.26842 38.662
CA -8.41307 9.4155 45.2754
CA -18.4863 4.19089 44.2816
CA 10.2793 -23.2702 78.8559
CA 11.1907 2.2409 55.5008
CA -4.06404 -15.2034 84.2021
CA -16.271 3.96234 47.3771
CA -25.7814 -1.14359 58.6883
CA -18.2165 -16.8367 84.8346
CA 10.506 -28.2208 86.0412
CA 4.36884 6.23787 47.6247
CA -25.0445 -18.448 87.7214
CA -4.62632 3.38119 27.5241
CA 4.65958 -8.46398 58.8072
CA -15.6572 9.40553 44.7266
CA 30.26 -16.8171 67.2308
CA 8.09687 7.18923 12.0949
CA 0.50125 10.1638 17.6809
CA -4.26546 -16.2943 93.9918
CA -3.07295 -12.7409 77.8687
CA 0.0683372 20.6272 45.6319
CA -12.9443 -13.7784 91.0952
CA -1.53193 -6.15457 80.3813
CA 6.6762 -5.26297 75.8339
CA 17.7226 -5.50238 68.3353
CA 6.26049 15.2679 81.876
CA -22.9022 -8.91437 74.069
CA 10.5623 2.35943 49.8875
CA -1.62011 -7.47479 69.5464
CA -2.60422 -8.67449 66.9284
CA -1.59532 11.3553 76.5759
CA -7.49302 6.42139 33.3327
CA -18.2079 10.4496 45.469
CA -3.37249 21.1926 74.0528
CA 1.63116 8.18011 42.5859
CA 0.456738 -17.9529 47.8454
CA -11.5193 -6.59065 36.8661
CA 12.8921 -21.5233 89.7735
CA 22.9184 -11.4224 50.8066
CA 12.3022 6.17048 61.7953
CA -13.6781 -11.5028 91.5779
CA -15.6117 -3.16457 50.2638
CA 0.129079 6.69027 27.469
CA -0.248383 -9.93305 80.6053
CA 5.11815 -1.39032 62.1223
CA 13.4856 -20.2225 85.291
CA -3.70332 -1.72423 60.2341
CA 5.77963 -6.88346 62.9652
CA -22.5296 -11.3985 67.1534
CA 0.379451 -18.9965 72.4009
CA 11.0742 16.1016 81.9887
CA -24.6355 -14.2366 68.0455
CA -0.343016 -17.0564 72.3558
CA 23.311 -27.5136 90.5491
CA -16.7987 5.78052 48.5279
CA 5.95762 9.26393 17.8134
CA 10.6091 4.10083 52.2884
CA 0.834193 9.64199 12.1307
CA -2.7143 19.2749 67.7341
CA 3.47952 -3.59049 43.792
CA -16.5922 -14.5439 71.7963
CA 5.35874 11.659 47.9179
CA -23.0159 4.7076 78.6426
CA -2.61685 12.668 14.7136
CA -5.5408 -14.5784 74.2775
CA -12.6159 -6.26417 75.2643
CA -17.6618 -19.0928 71.5823
CA 9.01604 -1.52492 60.0211
CA 9.92859 15.4845 68.0004
CA -15.4399 -1.56354 78.8302
CA 20.3531 -25.8756 88.4568
CA -4.86049 1.43747 64.9302
CA 12.4598 11.2999 65.9399
CA -14.0701 -6.59966 51.7194
CA -7.63163 -1.94521 86.0508
CA 2.97134 -3.80605 53.6773
CA -14.2704 -6.01776 90.1246
CA 7.68511 -19.456 47.8359
CA -3.07495 -0.604424 64.8015
CA 2.46638 19.1725 16.0945
CA -25.9871 -7.85317 74.4562
CA -5.59396 19.895 58.007
CA 3.39 -11.1322 75.6219
CA -3.43735 16.2012 76.7406
CA 3.89456 -9.63249 64.367
CA 3.16731 11.9772 37.9502
CA 9.73127 2.50096 61.6806
CA -15.1619 -7.01701 47.4473
CA 10.6809 5.57293 47.9979
CA 7.89157 -12.669 56.5569
CA -11.0836 7.83193 30.8585
CA 15.249 12.2148 78.3136
CA -8.35905 1.37535 71.5774
CA -17.6002 -2.96545 44.437
CA 3.97301 -13.0678 66.9029
CA -3.68769 -13.9613 52.0165
CA -0.439574 -2.20762 41.274
CA 6.19415 -7.7641 86.9723
CA -0.730773 3.628 54.8882
CA 7.59365 12.7494 73.5567
CA -22.4648 -1.02437 69.9707
CA -10.3572 -4.1783 62.5257
CA -3.06259 -10.468 49.2406
CA 5.04419 7.32898 13.7434
CA 12.6604 10.3837 58.2844
CA 17.0284 0.888008 58.8577
CA -11.7616 2.0532 80.6559
CA 6.62682 19.1632 62.4035
CA 5.94002 -11.3672 51.9236
CA -12.1071 -5.78955 85.6527
CA -25.8446 -20.6609 88.2997
CA 9.84813 -2.4383 49.1274
CA 2.90714 -5.34124 50.8615
CA 8.4135 1.63903 19.064
CA 9.30618 0.121166 68.5033
CA -2.18641 25.4429 64.9755
CA -24.2708 -16.0779 68.2321
CA -8.68446 -18.2424 93.9877
CA 24.2103 16.8026 81.3093
CA 10.0993 2.93479 47.2006
CA 8.49696 -25.1524 79.0033
CA -8.17164 3.40137 70.4267
CA -12.9059 -3.12052 93.0155
CA -5.27357 8.76157 19.0604
CA -11.6208 11.0805 75.249
CA -6.4702 1.19835 47.5823
CA -8.60183 11.985 66.676
CA -6.1564 9.26867 78.8197
CA -17.5591 -4.58011 46.3296
CA 18.4192 -8.38469 57.2906
CA 4.42241 8.62309 15.19
CA 8.72747 14.0765 68.6181
CA 0.664428 19.146 62.9917
CA -23.3194 12.5472 46.2299
CA -3.90003 -18.3934 95.3593
CA -1.46857 18.353 69.5233
CA 25.2792 -23.5924 86.455
CA -8.8241 -16.3197 59.8233
CA -8.67506 14.1974 45.9776
CA 11.994 -13.378 81.7503
CA 4.61818 4.50923 56.7723
CA -4.46359 17.4705 72.0633
CA -6.06298 19.8375 66.6506
CA 1.68488 17.3278 73.7674
CA -0.989386 11.7509 70.3693
CA 9.06639 -7.31554 59.687
CA -9.35601 -6.36251 82.5958
CA -5.86486 -13.9273 57.6721
CA 4.14974 -4.78965 41.3741
CA 21.2427 -1.88104 70.7057
CA -0.0705432 9.05522 73.8411
CA 10.3304 -6.10766 47.6998
CA 9.29269 4.98714 59.8124
CA 1.59703 7.98624 56.4355
CA 1.3033 2.13547 55.1579
CA 3.54039 -0.84785 58.9861
CA -1.75331 -14.9935 52.0281
CA 6.33004 -21.1837 76.1846
CA -16.6674 -0.522168 47.2306
CA -14.7305 -3.18986 93.5489
CA -24.264 -10.1853 74.7512
CA -7.12928 0.142386 73.6522
CA 14.44 -8.4629 70.7019
CA -19.0525 -3.14379 41.3289
CA -8.6678 11.8611 80.9477
CA -30.8722 -13.3242 78.9245
CA 23.4603 -6.30243 66.7725
CA -21.9755 -3.53063 40.6313
CA -0.165241 12.2493 67.3815
CA -16.9107 11.232 39.6664
CA 8.41232 3.38485 58.3564
CA 5.20088 -18.5387 82.1402
CA -12.4051 2.92072 35.9344
CA 5.64038 0.16926 49.7067
CA -24.5405 -13.4088 65.5691
CA 1.71296 6.92761 61.1766
CA -20.0956 -9.69316 72.7693
CA 11.3044 -4.1886 44.5412
CA -23.163 -11.3483 52.0886
CA 4.2954 -16.0441 44.6745
CA -4.17879 -16.1289 53.3683
CA -3.23119 13.9105 18.9837
CA -6.27729 21.0037 53.4323
CA 32.3062 -1.44201 72.9872
CA -1.91864 7.24127 55.0439
CA 2.43825 0.146838 56.2238
CA -8.50033 5.17321 70.0807
CA 2.56096 -5.77051 73.4413
CA -7.15829 2.45321 65.5662
CA -13.1121 8.41716 78.1286
CA 12.1484 -1.73323 45.7513
CA -19.6805 -5.83984 49.2693
CA -16.9244 -5.19626 35.7983
CA -10.7106 -0.688176 30.801
CA 0.0774821 14.3457 17.2556
CA -4.34899 17.5044 74.4257
CA -12.3439 -12.0945 76.9953
CA -18.7895 -10.35 48.0675
CA 4.08403 7.43822 55.089
CA 15.4676 -6.95825 71.072
CA 17.1001 -11.0094 74.1719
CA -4.70957 2.19539 30.048
CA -26.1561 -11.4149 65.5235
CA -3.11588 -9.49508 83.6017
CA 14.973 -12.95 61.7423
CA 3.0485 14.4786 44.6396
CA -11.6919 14.6811 51.4681
CA -23.0119 -20.2008 91.6989
CA 0.719227 12.6901 47.3343
CA 17.1802 -6.6501 70.4529
CA 6.66288 12.7104 67.5014
CA -3.56921 -19.5159 87.4841
CA 6.17684 11.8731 56.2587
CA 5.90534 3.93249 68.5378
CA -14.8445 1.91452 53.8213
CA -20.4426 -20.0381 92.0586
CA 3.59118 9.07137 53.7635
CA -10.4744 1.2756 68.7068
CA -13.5812 8.02237 33.3494
CA 1.59973 -10.4756 80.6647
CA -17.1472 -16.1899 79.1383
CA -5.64329 -6.4914 51.3651
CA -9.28384 8.64117 67.7228
CA -18.2814 -12.9553 81.1506
CA -1.42097 -5.04321 72.5941
CA 22.6178 -7.82732 78.6771
CA -0.451583 9.53304 22.9482
CA -5.78447 -7.43649 83.5332
CA -0.533637 10.7262 54.5187
CA -2.06378 -6.88095 67.156
CA -0.208768 12.7335 12.3204
CA 21.0776 -10.1767 55.3128
CA -2.92977 14.4404 41.5368
CA -22.4851 2.71794 76.9878
CA -3.60427 2.92012 50.2223
CA -2.53023 -16.4438 49.9525
CA -9.70561 10.3152 74.5385
CA -4.10916 0.861906 67.3826
CA -18.9843 -6.40589 34.3903
CA -17.0032 -10.914 50.7035
CA 20.791 -11.6024 67.0733
CA 4.60947 6.51841 61.4701
CA -15.9746 -8.05677 77.3588
CA -0.280711 18.4653 60.1064
CA 8.40984 0.834499 53.6084
CA 11.6721 12.5412 60.6862
CA -14.4616 5.70244 48.9016
CA -11.6187 -10.1681 82.8939
CA 11.3072 -1.41322 57.5849
CA 13.1078 0.050659 61.9782
CA 25.0334 -10.7046 83.5076
CA 4.07988 -6.19009 52.1103
CA -1.97211 17.8089 77.1471
CA -2.36971 -12.0726 65.8096
CA 20.2274 16.7772 82.0161
CA 24.4976 -9.923 68.9698
CA -18.254 -1.38755 77.4954
CA 13.0613 -2.24078 49.6067
CA -14.4242 -12.5568 94.2931
CA -23.316 -17.3945 85.9724
CA 0.626712 4.10574 58.2965
CA -11.4677 15.1069 44.6802
CA -5.53305 2.2825 54.3937
CA -4.67474 5.1931 35.9365
CA -3.14498 13.6808 78.0575
