489

CA 0.215371 13.3545 17.4548
CA -3.31717 -9.15475 58.4779
CA -2.05944 -4.21174 46.9353
CA 8.47597 21.0296 81.5349
CA 3.17495 -1.35113 92.636
CA -2.92263 18.2925 72.9386
CA 3.50995 -7.42931 83.648
CA -4.90965 -0.281272 90.3465
CA 21.9386 -6.12773 49.2153
CA -23.4702 1.24627 56.151
CA -12.1672 -7.27578 52.5008
CA -1.26029 -15.8268 90.6867
CA 24.543 -3.06396 78.732
CA -11.9026 -9.93224 83.634
CA 5.19877 -3.69861 52.8246
CA -4.64384 -1.82105 28.8799
CA -3.32696 -16.321 84.4642
CA -15.5997 5.22717 79.8836
CA 18.7787 1.04732 53.0428
CA 2.32709 -13.0644 81.2957
CA -21.4485 -0.577673 75.2747
CA 11.7484 -1.60175 63.7991
CA 9.36648 8.92328 50.4934
CA -4.05225 9.97905 17.3636
CA -8.16626 30.165 53.8346
CA 0.94187 15.6529 78.1115
CA -2.56942 -0.732095 70.0838
CA 0.225871 -8.86459 71.3883
CA 8.59684 -7.73086 83.3039
CA -12.8805 -8.31446 50.9854
CA -11.5275 -5.45731 44.0261
CA -24.4503 3.43897 81.6386
CA 6.94884 -4.48852 69.9464
CA -4.36446 0.742815 65.3484
CA -31.0112 -4.03433 73.9652
CA 21.1373 0.0668743 56.3778
CA 3.09194 8.31261 12.6782
CA -20.1185 -13.3142 76.8055
CA 0.501657 -3.18694 52.1155
CA -24.0632 -0.973372 65.4914
CA 18.3302 -2.11524 64.9939
CA -7.72925 21.9585 57.5393
CA -12.5148 -9.56835 91.7298
CA -1.39723 3.65312 84.099
CA 15.7979 -3.39929 52.7474
CA -4.36813 8.42579 71.3185
CA 2.85792 4.41618 62.5018
CA -22.163 -8.93609 71.0618
CA -10.028 8.20622 73.0217
CA -11.1106 -3.89919 40.1717
CA 10.7286 3.46236 68.0541
CA -20.8069 -10.6091 46.3317
CA 0.35141 -11.2237 73.1337
CA 2.56113 -3.49074 56.3444
CA -11.5122 3.67924 52.2112
CA 3.43323 -18.5743 51.6819
CA -21.3632 -12.8031 80.8398
CA 8.51598 8.77871 60.3217
CA -13.8147 -9.32564 95.42
CA -11.1248 19.124 18.3537
CA 13.9313 -27.7187 93.1578
CA -4.91754 10.1797 60.1803
CA -7.15301 -2.23699 42.711
CA -5.94156 10.3356 19.1414
CA 14.0218 -11.3082 74.9844
CA -10.7495 -11.0808 75.7667
CA 8.09256 -8.90251 61.3539
CA -2.38923 15.856 60.9551
CA -1.10945 -21.0754 55.0598
CA -1.17751 -9.64112 60.5239
CA -6.05985 2.38656 16.7185
CA -0.33171 -16.1759 52.4322
CA -0.0111754 -3.867 84.1915
CA 9.22207 -3.281 60.6707
CA -0.869061 -2.61215 25.1411
CA 5.04506 -17.6756 61.1933
CA 6.85702 -0.82428 69.5155
CA -6.46025 0.641045 93.1007
CA 4.26878 -10.6294 50.1133
CA 4.47138 -13.3133 67.5628
CA -27.9322 -5.19411 58.7334
CA -0.235083 5.37602 83.0642
CA -3.47747 -12.0797 54.6191
CA -0.916431 -13.9354 80.5291
CA 11.9071 6.35065 55.2712
CA -6.50504 7.61606 71.1515
CA 5.52098 -13.3926 77.3654
CA 26.9406 -6.36711 63.0448
CA -26.2675 -5.59861 43.0085
CA -26.0036 -5.95642 62.7182
CA 1.00236 -9.52042 69.6474
CA -0.59513 -2.40037 39.0699
CA 21.894 -4.24746 59.9425
CA 0.419011 6.21197 71.7709
CA 2.68664 25.5326 55.6494
CA 13.1175 -7.80492 59.6753
CA -17.1885 -2.82958 67.3739
CA -7.53808 17.4917 51.3003
CA 22.9841 -3.9024 63.6524
CA 4.05459 -9.7801 48.3689
CA 5.7338 9.20126 60.801
CA -24.5407 -4.03393 43.0324
CA 22.2122 -23.6929 91.1544
CA -21.6446 -3.72011 43.4226
CA -28.0604 -7.1489 65.1761
CA 7.55294 -10.5633 76.3907
CA 2.98392 -17.6791 48.0659
CA -14.809 5.284 46.3048
CA 4.58284 1.73478 40.3966
CA 2.29693 11.6772 75.4909
CA 1.27733 -20.6618 57.6676
CA -0.0847823 -6.60095 38.8738
CA -6.62368 4.41219 18.4303
CA 0.584811 0.365258 53.6968
CA 7.99963 -8.32666 40.1371
CA 6.56774 16.1899 19.7064
CA 12.2276 1.05863 72.9903
CA -3.21882 16.4571 55.6213
CA 1.02335 -3.64329 88.7316
CA -8.66881 5.45369 60.2026
CA 7.21921 -16.7044 79.6947
CA 1.70332 -12.8901 95.2811
CA -5.03449 28.2716 55.4014
CA -0.195164 -7.01956 48.5683
CA 12.0171 -20.8243 87.514
CA -11.7317 3.79026 82.7632
CA -22.6601 -9.90311 85.0365
CA 1.41792 -16.1408 88.5888
CA -0.784268 9.00954 21.4267
CA 1.94119 29.3947 55.4181
CA 2.01558 -15.1477 71.277
CA -19.591 -7.22199 71.1141
CA -0.803077 -16.6742 94.195
CA -12.6038 -14.1992 85.6834
CA -18.8166 -1.93102 67.0286
CA -4.61227 18.1854 50.6005
CA 0.000689896 -7.49093 44.9367
CA 9.54571 -2.48542 63.801
CA -1.13808 17.6049 77.7367
CA -16.0651 -9.30528 81.9591
CA -23.7079 3.76011 43.7244
CA 6.41534 14.3489 19.6517
CA 2.39933 18.1618 76.5574
CA 5.64712 -8.89638 85.1715
CA 0.347991 25.9651 55.0189
CA 10.2758 -19.7943 84.4993
CA 9.30977 -8.96341 73.2587
CA -12.0062 -13.5773 90.2807
CA 0.645956 25.5283 60.0632
CA -0.982152 21.8871 65.0436
CA -0.872677 1.86842 85.9093
CA 4.37933 -9.16659 71.9571
CA 5.22508 -4.1279 40.3006
CA -8.09197 -0.868689 32.1939
CA -9.52311 2.264 49.1245
CA -0.410797 -15.6371 56.1948
CA 12.7452 -24.0434 91.4897
CA -10.0668 -18.8478 76.5433
CA 4.67654 -19.776 86.0599
CA -2.57513 -2.70176 65.1684
CA -0.900054 -23.3855 78.1418
CA -3.61896 7.80577 76.6974
CA 5.94467 12.7841 10.2171
CA 19.064 -22.154 83.9513
CA -3.76711 17.8452 62.5732
CA -9.40254 -12.1669 81.1442
CA -8.62674 4.44633 56.8462
CA -9.77159 -1.2957 42.6538
CA -3.4132 11.3965 19.5987
CA 4.64338 -2.78889 42.0281
CA -7.07454 0.0698692 91.0487
CA -27.7946 -9.35973 65.3481
CA -3.60309 23.2052 62.4762
CA 1.3181 1.76441 84.6621
CA 7.60579 -26.6994 54.0789
CA -0.624908 2.5166 23.4145
CA -9.44682 -3.01695 38.3677
CA 4.28042 -9.53027 42.9235
CA 2.32669 -14.1566 89.6512
CA 21.7169 -2.49665 70.8176
CA -1.39949 15.6847 77.2932
CA 6.62691 -11.7297 79.1545
CA -0.740216 19.6091 66.5576
CA 24.2322 -7.17636 62.3671
CA -4.65802 12.1761 73.869
CA 4.10669 -15.5545 85.5623
CA -2.05139 -15.2091 49.273
CA -9.50258 15.8976 67.2027
CA 2.43959 16.7762 16.7183
CA -9.50847 14.969 28.2503
CA -24.3693 -11.6395 67.5282
CA -5.80856 7.95072 51.9214
CA 8.48247 -16.0684 56.8884
CA -24.7445 -11.2845 72.4556
CA 2.86009 0.971769 40.9721
CA 5.38367 7.01596 2.29189
CA -8.33051 14.583 16.9585
CA 2.32517 -13.3007 93.5155
CA 5.97515 -16.2376 66.9991
CA 7.21983 12.8967 66.3689
CA -10.2639 -5.52096 70.3241
CA 1.72862 -1.13425 21.6834
CA -22.1225 -13.2428 83.2855
CA 8.77419 17.3708 79.5702
CA 10.5104 -21.1205 89.9787
CA -21.1765 -4.76616 76.0919
CA 13.1848 -7.47846 64.1231
CA -20.3469 -9.73102 72.8657
CA 16.4128 -18.9768 86.4096
CA -4.68714 17.0706 54.2527
CA 5.60874 -7.72045 97.6308
CA -5.29572 -13.4078 44.5585
CA -5.16724 11.2692 52.9561
CA 10.1013 -11.7534 39.4011
CA -25.9841 -3.05645 77.4553
CA -5.73139 -17.8077 58.1231
CA 2.91463 6.19219 60.7797
CA -0.317449 28.0119 54.1186
CA -3.75378 -22.0905 67.6218
CA -20.1928 7.51278 46.7626
CA -8.93824 7.08135 71.9621
CA -4.7151 14.0509 52.5386
CA -6.77751 19.0154 65.941
CA -26.1749 -4.30529 80.0886
CA 9.7879 8.89493 56.1184
CA -0.827351 20.0555 72.2879
CA -4.95818 4.88272 79.3532
CA -6.31225 21.2719 60.31
CA 3.85531 2.64052 68.8732
CA 0.781666 -15.963 77.2241
CA -13.1053 -6.39794 50.2082
CA 13.5118 -14.4489 55.5369
CA -18.2165 -16.8367 84.8346
CA -31.6485 -20.2657 74.47
CA 0.113909 -20.7125 76.7609
CA 14.5807 -31.3922 93.1217
CA -22.9958 -2.45564 61.3126
CA -7.40133 12.2177 72.4949
CA 20.9502 -4.61929 68.4682
CA 5.45442 12.8035 73.8818
CA 14.0307 -3.95708 63.6373
CA -14.8413 -2.12443 69.3702
CA 0.348332 -7.99362 57.4155
CA 3.96873 2.90982 61.34
CA 6.84988 -0.524209 40.9341
CA -15.2328 -5.22191 84.8984
CA -10.991 -6.30335 50.8792
CA -2.79829 10.565 9.78996
CA 5.27553 11.0266 64.1733
CA 2.7662 -5.49945 54.3541
CA -8.22634 27.2448 57.9682
CA 6.93675 -15.0857 91.8932
CA -0.981933 20.6632 68.0353
CA -23.0321 -6.43118 60.3965
CA -2.83028 9.4124 71.6749
CA -4.60642 -4.22724 90.1337
CA 0.576975 -26.6712 76.8288
CA -0.648512 9.52525 69.5199
CA 2.05443 -0.409962 71.3304
CA 26.0278 -3.5804 71.13
CA 7.32223 -5.06704 45.9621
CA 7.03257 -8.55665 75.2873
CA -0.724974 0.0652182 40.0254
CA -24.8947 1.29651 78.3928
CA 1.61083 -25.1096 49.7776
CA 23.3732 -8.21507 64.6195
CA -4.4903 7.51578 16.3974
CA -6.68962 -10.7528 45.2115
CA 11.9993 1.61614 69.383
CA -23.6035 -14.8872 74.9938
CA 11.6423 8.18509 69.3082
CA 8.44789 15.7794 83.6436
CA 1.80924 -6.04528 93.2146
CA 2.51542 -15.4992 62.7943
CA -21.4739 -11.0621 70.5849
CA 1.63711 -18.5129 66.4399
CA -17.2955 -18.3162 69.7563
CA 17.6512 -8.96299 51.6029
CA -18.7828 -4.61375 81.8178
CA -0.571752 9.64106 19.5651
CA -21.2129 3.6003 42.973
CA -2.43217 17.846 18.0073
CA 0.916584 -10.7973 55.5151
CA -9.92871 14.8528 47.9719
CA -5.47078 6.26848 29.6903
CA 4.10999 -2.13857 71.2603
CA -16.4285 -8.88642 48.0707
CA -9.1799 -19.5618 74.9608
CA 8.35166 -6.05783 35.8
CA -1.06749 -14.2812 45.5014
CA -21.578 4.30086 45.0303
CA -15.1924 -19.3172 44.8882
CA -0.872508 -18.9541 61.5062
CA -3.69513 -17.367 53.7015
CA -19.5739 -13.881 66.9355
CA 4.21494 -23.4758 52.0956
CA 1.97682 -18.2759 42.354
CA 6.50744 24.6636 86.1223
CA -2.77608 -22.4942 79.3111
CA 7.58235 -7.54143 60.0355
CA 25.103 -3.50144 75.2279
CA 3.66829 -10.5466 95.759
CA -25.2236 -2.03781 61.0447
CA -4.09379 26.3843 60.946
CA -12.3856 8.90633 53.0749
CA -19.2551 -10.0021 85.9047
CA 14.4469 -10.9465 66.3546
CA -20.8721 -15.3332 49.9778
CA -11.6215 -7.39214 64.2264
CA -1.07484 25.6558 58.9846
CA -15.5871 -0.319314 50.0478
CA -10.4031 12.9168 29.7245
CA -3.93564 -15.21 54.1548
CA 1.1739 -14.5549 55.1371
CA -24.0957 -5.64594 63.8208
CA 6.80751 0.754414 61.8398
CA -29.4255 -18.0343 75.6904
CA -5.61661 -10.067 61.962
CA -3.28292 7.35259 24.8563
CA 2.14621 -6.18256 56.1368
CA 7.06214 -10.5483 43.7272
CA 3.21998 -16.9361 45.2944
CA -9.65229 5.57542 80.6103
CA -19.3791 -6.88773 57.1596
CA -1.71163 4.57521 79.4465
CA 2.85882 9.30236 8.32067
CA -17.2017 -2.42051 65.5488
CA 22.1323 -3.2945 73.0362
CA -7.101 9.50681 50.5777
CA 1.34106 -6.82054 53.9254
CA 9.30816 -16.7275 82.7773
CA 1.03662 -21.9923 47.7141
CA -8.81346 5.99336 70.2358
CA -20.9652 -8.32429 61.6093
CA -7.1506 -15.2929 53.0946
CA 13.7055 9.84867 55.9377
CA 5.01418 -14.7796 60.9024
CA -29.5033 -8.30472 67.3914
CA 2.56155 0.140342 64.2341
CA 12.3971 -9.75901 58.8819
CA 1.28528 -11.5327 68.9735
CA -11.2012 -6.85757 54.352
CA -6.95005 -4.41795 62.4653
CA 5.79563 15.1135 15.6306
CA -17.6209 -20.0859 46.8491
CA -9.72388 -4.77614 66.3469
CA 5.43995 13.7741 79.109
CA 17.4829 12.9104 58.2815
CA -19.2438 -7.25099 46.3123
CA -19.1089 -0.751419 47.7361
CA -3.30761 13.2839 22.2549
CA -25.9905 -2.30001 44.0539
CA -3.52641 -20.1184 65.2627
CA 0.93308 22.8824 58.0818
CA -4.47789 -23.9537 64.6351
CA -6.8817 13.3273 63.3991
CA -1.73975 7.67742 57.1414
CA 8.34253 -4.21917 35.8958
CA -1.56682 -0.472427 87.1788
CA -2.93799 12.9037 18.6266
CA 0.800331 -4.96293 87.0832
CA -10.5325 -2.15064 89.4805
CA -7.84731 2.98163 27.4082
CA 1.57458 -15.3884 57.2417
CA 3.05096 -14.6687 92.544
CA -5.07704 19.5975 18.4474
CA 8.95709 9.63219 66.1875
CA -5.75753 -7.07643 58.4
CA 7.2503 -4.11717 59.9796
CA 3.05433 -12.8525 86.8681
CA 5.41945 -11.29 58.7738
CA -14.38 -7.29086 83.355
CA -11.9526 5.233 54.5219
CA -10.9176 7.87594 50.5426
CA 6.77669 -13.7578 48.3746
CA -24.3443 -3.968 78.365
CA -14.8347 -5.54648 47.0276
CA 16.8909 -8.1256 58.0347
CA -8.48913 -3.4371 42.2488
CA 17.6783 -7.44821 47.1532
CA -1.1319 0.627507 76.6549
CA 4.70739 -6.6304 40.8689
CA 8.26415 -21.007 51.8072
CA 7.27069 -5.8916 38.1012
CA -6.89608 17.523 16.69
CA 9.40827 -7.35574 76.2196
CA 5.2619 -14.0316 43.5434
CA 2.7815 0.539812 86.0416
CA -5.45453 7.72635 60.5641
CA 3.55532 -4.49624 50.6715
CA -0.344896 -14.6808 54.0477
CA 0.939379 6.56352 14.8309
CA 8.00568 -15.4434 65.8624
CA -17.9843 -16.7003 50.3596
CA -3.8788 -0.333942 38.9741
CA 17.0418 2.58524 53.9647
CA -0.812745 1.01341 65.3449
CA -27.3889 -14.8066 76.5326
CA 9.94901 -10.4243 60.4936
CA -4.70694 16.7741 74.2696
CA 0.850278 2.72539 64.4496
CA 19.7247 -7.88027 45.6998
CA -7.70028 20.9644 16.3911
CA 1.22487 -7.70288 50.7349
CA -1.50613 -19.9696 43.1311
CA 6.32043 20.4296 82.6413
CA -18.9048 -10.7077 77.2663
CA 8.3052 -20.4899 59.339
CA 7.25166 15.9855 80.3902
CA 8.13177 5.54452 60.3505
CA -5.52249 -19.6249 59.7486
CA -6.21356 -11.2595 53.0854
CA -13.9964 -17.8585 67.9443
CA -1.82917 2.24529 55.8357
CA -3.22811 2.83967 87.5907
CA 1.13691 -20.8413 52.4098
CA -5.57028 11.3691 72.4586
CA -19.8945 -2.72586 39.3539
CA 0.544342 -24.3571 52.4569
CA -2.6648 8.18383 26.9698
CA -7.53577 -2.37191 65.2477
CA 6.44164 -4.95466 80.6737
CA -13.2819 -13.4927 75.0312
CA -3.92674 -1.46468 37.0235
CA 0.105953 6.87179 12.9798
CA -11.479 28.7638 54.6655
CA -2.00827 5.22076 15.8584
CA 24.1361 -20.904 81.767
CA -9.85249 3.81693 70.7724
CA -4.97055 -18.9449 63.957
CA 23.0376 1.2928 61.7862
CA 0.961847 8.22843 3.75177
CA 2.27716 -7.81719 52.7388
CA -20.8289 -1.88375 47.4569
CA 6.11992 -14.5822 63.1692
CA 3.58328 14.0469 62.8728
CA 21.5339 -21.9088 84.3179
CA 6.35643 -7.39913 77.0276
CA -2.47603 -8.18104 59.8773
CA 4.10129 -2.48211 55.9996
CA -28.0808 -4.29672 74.6532
CA 5.40572 -5.29553 44.1937
CA -1.68494 -14.3747 70.8563
CA -17.8012 -9.65425 71.1681
CA 16.6192 -12.3937 58.2926
CA -17.1289 -9.09387 84.74
CA -23.7477 -2.45501 59.4732
CA -11.8823 -0.384953 40.8562
CA 0.503254 13.0435 11.564
CA -9.32041 23.8964 61.6144
CA -5.81623 -14.4703 42.5253
CA -17.5861 0.486472 48.3524
CA -2.5369 -15.304 77.1159
CA 4.81192 -12.4728 94.0273
CA 11.4042 -6.55923 50.7998
CA 21.0776 -10.1767 55.3128
CA -9.43987 -8.59109 69.265
CA -14.5908 11.5106 51.6845
CA 22.2558 -5.81228 62.9531
CA 2.83379 -10.5967 74.9852
CA -4.32487 -12.1073 83.2288
CA -8.43165 -2.50803 69.4009
CA -5.84382 4.13523 70.195
CA -16.072 9.05355 46.5461
CA -26.0743 -6.23362 78.4168
CA -11.4938 -8.77307 86.383
CA -5.81249 3.83585 23.1928
CA 6.02457 11.498 21.5661
CA -14.008 -1.14397 45.0644
CA -16.1266 -7.75842 85.6468
CA 5.92777 -8.08411 40.8044
CA 14.0197 -19.487 87.4513
CA -5.24359 11.5557 27.7509
CA 1.68854 -10.1855 71.5004
CA -12.8471 0.548935 46.147
CA 11.8402 -16.0433 84.8148
CA -0.492864 8.47555 76.6838
CA 1.05519 -9.00785 81.2031
CA -10.2068 -15.1805 76.1122
CA -10.1834 -6.09337 90.6784
CA 20.2207 -22.0825 86.7468
CA -3.18337 1.50054 34.0784
CA -22.6892 -8.20632 48.6342
CA -7.09661 -6.16407 70.4637
CA -1.82118 -0.420262 64.346
CA -22.3255 -14.2641 47.1433
CA -5.53305 2.2825 54.3937
CA -2.83957 -17.6107 51.7529
CA 5.56303 -17.8079 81.6099
