489

CA 0.215371 13.3545 17.4548
CA -3.31717 -9.15475 58.4779
CA -2.05944 -4.21174 46.9353
CA 4.39472 -17.804 57.8716
CA 0.116828 -11.6236 53.791
CA -0.0367387 -12.0374 66.6856
CA 15.4646 -11.202 55.2136
CA -7.60716 19.743 45.216
CA -11.1026 -11.8581 88.1584
CA -7.08474 -8.88046 85.9591
CA 4.90013 3.42094 41.9046
CA 2.79196 6.14921 43.4796
CA -27.4869 1.25273 76.4823
CA -3.73612 19.8542 62.1775
CA 5.19877 -3.69861 52.8246
CA -4.64384 -1.82105 28.8799
CA -3.52256 -17.4791 47.2205
CA 1.32226 -9.26193 69.6107
CA 22.7444 -10.7053 59.6823
CA 1.11968 6.47732 83.6768
CA -0.666542 -10.1377 85.0572
CA 11.7484 -1.60175 63.7991
CA -1.91903 11.8835 19.8498
CA -10.3377 19.4207 68.9662
CA 23.5153 13.6672 57.8061
CA -35.2809 -10.5624 69.5459
CA 15.4955 -9.87076 50.9215
CA -4.53128 13.5804 57.635
CA 7.88264 -7.27572 58.2651
CA -4.13972 5.83303 47.6449
CA -7.46225 16.9858 59.7183
CA 4.11312 -21.0462 42.2287
CA -1.03817 9.04388 56.3747
CA -10.1858 -6.21 81.5017
CA -19.8767 -2.85257 51.5362
CA 2.79286 -6.26168 91.719
CA -4.91435 -8.65558 48.1854
CA -6.60578 -14.3617 92.077
CA 0.501657 -3.18694 52.1155
CA -24.0632 -0.973372 65.4914
CA -11.952 -12.768 45.5428
CA -15.1278 -11.8439 81.5912
CA -9.33511 -12.469 61.4771
CA -10.6715 16.7484 60.083
CA -3.8482 -19.7322 55.3297
CA -0.48963 13.481 9.73122
CA 10.1984 -4.45979 45.5404
CA -13.311 2.6498 51.2011
CA 2.88455 -6.80827 34.8704
CA 1.38591 -13.0164 66.1085
CA -5.13834 17.0486 61.9258
CA 1.54407 7.85149 81.0419
CA -1.66337 10.5914 69.9683
CA -4.45947 -16.3199 94.6586
CA -11.7081 -1.56305 43.0254
CA -0.0179323 -6.10179 93.9201
CA 20.1232 11.6052 59.2373
CA 8.51598 8.77871 60.3217
CA -3.59398 -15.676 64.1989
CA -11.1248 19.124 18.3537
CA 12.0411 15.6768 56.6684
CA 0.672091 -4.80671 65.1492
CA -3.88675 12.1195 17.2326
CA -5.936 12.3624 30.5794
CA -6.58943 -13.8687 67.191
CA -1.82639 -13.3008 49.3581
CA 8.09256 -8.90251 61.3539
CA 7.18654 10.9676 75.5575
CA -3.74692 -11.8398 48.8692
CA -9.70458 -12.6065 86.9431
CA 0.821561 9.51685 67.1538
CA -27.0753 -8.80121 71.1311
CA 2.8631 -12.0832 54.7398
CA -15.5021 -11.5096 93.9819
CA -6.72888 -2.61957 57.5832
CA -25.6175 -14.8564 51.7373
CA -1.1933 23.011 62.52
CA 14.7855 -11.1754 60.1171
CA -8.12803 -9.46188 63.465
CA 4.13271 -7.98083 94.8673
CA 1.87371 -0.479822 66.2015
CA -3.28158 -4.96502 76.5694
CA 19.4929 -5.2698 59.3751
CA -8.75279 -5.89439 45.1668
CA 11.9071 6.35065 55.2712
CA -25.6015 -10.6098 49.1041
CA 4.32758 -6.35795 77.3385
CA -20.1886 -3.7412 63.3828
CA -9.03572 -5.01072 30.2661
CA -5.8782 8.29015 73.9153
CA -10.8957 18.69 16.1626
CA -16.6458 -6.343 40.5498
CA 1.22791 -4.34583 97.1877
CA 0.419011 6.21197 71.7709
CA -2.74657 24.3184 64.8152
CA -2.84356 0.620639 37.4815
CA -21.0968 -14.9972 66.0948
CA -7.53808 17.4917 51.3003
CA 2.12243 -11.8367 83.4372
CA 3.30868 -7.62118 56.0504
CA -1.28529 -1.81416 61.5678
CA 6.37431 -14.147 90.2398
CA 22.2122 -23.6929 91.1544
CA -21.6446 -3.72011 43.4226
CA 2.59043 19.6828 83.3117
CA -1.89667 -5.50736 28.6846
CA 5.76578 -5.77832 58.3339
CA -13.0208 -13.0039 84.0613
CA -14.3999 -11.7162 91.4449
CA -11.8017 -9.69933 50.1178
CA 5.80062 4.89783 45.395
CA 1.99531 -7.48137 99.1401
CA 2.04915 1.22223 38.0377
CA -27.323 -12.4642 49.0952
CA -2.93196 -15.9807 68.5536
CA 6.56774 16.1899 19.7064
CA -18.9166 -10.2953 44.1054
CA 3.19866 -2.80227 53.3761
CA -7.71846 -10.5316 66.537
CA 5.13066 -8.69004 77.8046
CA 12.0089 -20.3078 90.6178
CA -6.09382 18.9631 56.6101
CA 5.63962 -9.34133 39.1317
CA 0.681328 -7.65706 85.3579
CA 4.68754 1.13959 71.4054
CA -15.9826 3.73823 48.2199
CA 11.3691 -16.2868 90.132
CA 6.58945 -14.4613 81.8485
CA -0.784268 9.00954 21.4267
CA -5.98052 15.6691 22.9079
CA 4.40409 -14.8443 53.8963
CA -19.591 -7.22199 71.1141
CA 4.86868 -11.2308 47.3768
CA -9.20293 1.12161 92.7602
CA 5.6517 -18.3444 62.7713
CA -7.91336 -18.8077 54.0633
CA -21.6382 -18.7711 78.4682
CA -21.0738 -11.7121 86.7381
CA 0.236501 -15.0086 65.5545
CA -1.31439 -17.8215 84.7146
CA 1.73265 4.10003 66.3091
CA 0.519666 -23.3373 44.1253
CA -11.9892 17.3943 17.3621
CA -8.4248 -19.8123 69.3589
CA -1.54516 -14.2868 45.543
CA 16.7717 3.57497 69.2808
CA -2.66934 -2.06749 89.1515
CA -0.014652 -4.31549 94.3614
CA 8.64974 9.458 74.6098
CA -1.04623 20.0465 72.8402
CA -1.00239 -10.6082 47.0381
CA 14.0409 -2.13148 69.7236
CA -10.9083 3.8768 50.1797
CA -0.160909 19.3159 82.2483
CA 19.0387 -8.43499 58.1909
CA -0.410797 -15.6371 56.1948
CA 12.7452 -24.0434 91.4897
CA -4.83587 -0.708452 58.1176
CA -9.15967 -21.0491 75.4127
CA 0.780073 16.5682 84.1697
CA 1.05907 -13.4422 53.7787
CA -3.61986 6.67911 14.386
CA 5.94467 12.7841 10.2171
CA 19.064 -22.154 83.9513
CA 7.40174 -16.7969 76.663
CA -9.65916 15.9656 17.2565
CA -1.56242 12.8726 69.9338
CA -9.77159 -1.2957 42.6538
CA -21.1478 -11.725 45.581
CA 5.69939 -4.54026 41.2611
CA 5.78624 -19.7847 46.0245
CA -27.7946 -9.35973 65.3481
CA 12.7384 1.15233 55.13
CA 9.73087 -8.03331 82.154
CA 7.75605 13.7387 68.212
CA -4.2133 9.2162 8.06599
CA -9.78701 -10.445 83.1872
CA 4.28042 -9.53027 42.9235
CA 1.88275 -2.34734 40.7172
CA 4.19405 -19.2647 62.1109
CA -8.04995 -4.12044 42.1665
CA -3.58119 4.55841 77.7878
CA -0.740216 19.6091 66.5576
CA -5.19152 -3.33952 67.5734
CA -4.65802 12.1761 73.869
CA -9.93109 7.97731 54.0956
CA -0.456554 -8.86241 68.9089
CA -7.05822 6.33893 56.4098
CA 3.71619 16.7528 17.407
CA -9.32775 -7.57245 74.1856
CA -18.996 -6.80325 78.8767
CA -5.80856 7.95072 51.9214
CA 10.5757 4.53198 43.8693
CA -24.7445 -11.2845 72.4556
CA 12.3114 -22.2132 91.0474
CA -3.02765 3.76112 58.1725
CA -4.36562 18.8927 19.7745
CA -8.28569 7.35105 47.086
CA 4.54635 -3.64444 49.2156
CA -4.60422 -3.19417 46.3281
CA -3.58093 22.3522 15.7385
CA -9.72734 -14.4047 87.2737
CA 0.98017 1.78553 67.9789
CA 3.64166 -21.0554 46.6157
CA 10.5104 -21.1205 89.9787
CA -18.0921 -6.49272 83.8155
CA 5.34208 -1.14137 36.3111
CA 1.20918 5.72449 70.1959
CA 4.16122 -3.4461 78.6607
CA -11.0107 -10.3929 70.2731
CA 18.8043 0.140701 72.3334
CA -4.74899 -4.34679 75.0834
CA -5.16724 11.2692 52.9561
CA 0.53723 10.272 74.1012
CA -3.48221 -18.3503 92.7518
CA 0.57563 -20.2867 74.1371
CA -32.5163 -12.3306 67.3874
CA -0.317449 28.0119 54.1186
CA -9.94854 7.3281 51.2967
CA -0.779252 1.09177 35.841
CA -24.4204 -0.841189 69.0163
CA 13.3965 -4.65231 66.9473
CA 4.07871 10.767 71.2257
CA -26.1749 -4.30529 80.0886
CA 15.2654 2.78382 68.4975
CA -0.83475 -6.72952 77.9296
CA -4.95818 4.88272 79.3532
CA -12.4857 -5.06571 81.2823
CA 7.25412 -17.9425 60.0421
CA 0.781666 -15.963 77.2241
CA 13.3777 -3.12749 55.5931
CA -1.49902 -15.3354 86.6825
CA -1.25934 -9.33687 63.9525
CA -30.9679 -8.49125 62.7224
CA 0.113909 -20.7125 76.7609
CA -10.1417 5.83262 77.2011
CA -22.9958 -2.45564 61.3126
CA 1.49539 -13.8676 46.8185
CA 1.43655 -14.6463 38.7145
CA 7.82646 -19.5345 80.7921
CA -7.12205 -8.30245 52.3652
CA 6.28259 9.90122 72.5013
CA 3.40879 6.81281 18.7004
CA 3.96873 2.90982 61.34
CA -5.50341 -17.4754 78.8632
CA -27.5401 1.49247 67.0258
CA -10.991 -6.30335 50.8792
CA -2.59911 15.9321 75.864
CA -18.3148 -3.85948 70.0282
CA -14.4513 -7.34527 56.1578
CA -3.53091 21.8326 18.4217
CA 13.9684 2.83629 65.349
CA -7.82423 0.244644 88.8166
CA -4.72886 -13.735 58.2147
CA -23.309 -14.5454 84.0938
CA -4.60642 -4.22724 90.1337
CA 5.92933 -12.582 42.4819
CA 11.1349 11.0935 56.1203
CA 5.23091 -2.25083 40.7593
CA 13.5007 -7.50463 65.7376
CA 7.32223 -5.06704 45.9621
CA -10.1397 12.2228 12.5222
CA -23.7227 -2.76853 51.4333
CA 16.1524 -10.907 64.6438
CA -7.22318 20.1806 55.6975
CA 8.15136 -9.16355 59.3673
CA -9.97582 1.08003 37.6914
CA 0.849692 -0.397982 64.0613
CA 11.9993 1.61614 69.383
CA -23.6035 -14.8872 74.9938
CA 0.0275017 -13.7655 67.329
CA 8.44789 15.7794 83.6436
CA 1.80924 -6.04528 93.2146
CA -14.0243 -11.4005 49.4107
CA -21.4739 -11.0621 70.5849
CA 8.0303 -10.3871 92.8142
CA -0.456948 -18.0486 96.0066
CA 2.45326 -3.34478 67.0694
CA 6.20066 -9.73508 74.0325
CA -5.52794 12.6941 15.8505
CA -3.49379 0.145617 56.3345
CA -2.43217 17.846 18.0073
CA 2.17457 7.47629 70.7845
CA 24.4286 -6.58642 58.0996
CA -22.6524 -5.46139 65.6615
CA -28.1258 -7.0037 65.2386
CA -7.51447 -8.94659 58.3912
CA -7.50676 -6.32445 78.4068
CA 1.86481 -6.10859 51.6673
CA -4.33085 -10.1124 74.0876
CA -1.11779 4.18792 7.64772
CA 3.85923 -20.2935 49.8256
CA -1.34618 6.9595 77.2049
CA -27.4883 -10.9277 72.0047
CA -19.5739 -13.881 66.9355
CA -5.65186 1.05735 57.5812
CA 10.101 11.565 57.5376
CA 6.29508 9.27079 74.2517
CA -2.11386 -7.86529 46.9933
CA -8.89269 3.72225 77.0575
CA -1.18354 13.3599 78.4352
CA 0.989835 -11.1614 87.4226
CA -7.68092 -5.32079 76.79
CA -4.09379 26.3843 60.946
CA -12.3856 8.90633 53.0749
CA -4.23893 -4.6081 87.6361
CA 17.3792 -22.517 87.3853
CA 14.2908 -22.3633 89.4555
CA 21.6093 -0.679184 65.845
CA -1.07484 25.6558 58.9846
CA -16.0936 -2.6553 82.4088
CA 21.4914 -5.83097 50.4971
CA 2.41975 4.8148 76.4509
CA -1.5838 14.6713 18.738
CA 2.47594 4.39321 13.9419
CA -4.87179 -15.4373 91.5306
CA -20.4754 -3.33286 48.7533
CA -7.38629 -7.60398 65.1798
CA -3.28292 7.35259 24.8563
CA -24.9331 -6.66415 42.519
CA -17.2771 -14.9197 68.1607
CA 17.5683 -15.9749 89.2799
CA -9.65229 5.57542 80.6103
CA 11.0453 -3.97815 63.8614
CA -6.03347 13.8207 51.5975
CA 2.85882 9.30236 8.32067
CA -11.5637 0.592793 67.6427
CA -2.4637 4.66561 55.4664
CA -0.156602 17.8357 20.5313
CA 5.40494 -11.99 45.1401
CA 13.1172 5.75583 53.5784
CA -0.237412 3.31858 58.5224
CA -21.0134 -15.7537 45.3302
CA -1.82292 12.5865 50.0475
CA -12.0908 -10.4618 71.9594
CA 11.0045 -8.7783 77.5695
CA 5.01418 -14.7796 60.9024
CA -11.1099 21.1114 69.3916
CA -24.475 -4.7553 73.0209
CA 12.3971 -9.75901 58.8819
CA -7.03008 6.10413 50.2014
CA 1.79076 -1.35864 87.3854
CA -1.92607 14.8827 9.50723
CA 5.79563 15.1135 15.6306
CA -17.6209 -20.0859 46.8491
CA 6.09511 9.066 82.2902
CA -16.2697 -10.7491 66.7022
CA 17.4829 12.9104 58.2815
CA 1.43841 -10.0141 78.7437
CA -30.2221 -10.3099 70.407
CA -0.299543 11.6487 9.22323
CA -8.78884 -0.298575 40.9231
CA -18.9615 -11.5829 49.9421
CA 0.93308 22.8824 58.0818
CA -8.10539 3.31737 49.5201
CA -6.8817 13.3273 63.3991
CA 12.0251 14.5143 55.1693
CA -0.770595 19.4847 77.7098
CA -1.56682 -0.472427 87.1788
CA 7.05573 -7.61722 63.5997
CA 18.6815 -4.64241 52.5031
CA -9.95654 20.4926 49.5886
CA -2.15024 8.55006 10.1047
CA -23.5586 -6.46064 68.3096
CA -0.393069 8.3272 71.2323
CA -10.5787 -5.2021 48.6609
CA -18.482 -8.60224 85.0063
CA 13.7422 -6.78589 50.4319
CA 21.4817 -2.89928 66.1808
CA 3.05433 -12.8525 86.8681
CA -23.5536 -17.8495 79.4487
CA -2.14731 -15.2705 41.7237
CA 6.8482 -8.57974 45.24
CA -3.26462 14.6467 20.7583
CA 6.09626 11.7894 77.3836
CA 0.323316 17.4023 18.0361
CA 2.06975 15.9151 10.019
CA -14.9736 -12.0725 52.2697
CA -1.58017 -22.4721 79.2009
CA -3.85423 -13.4957 54.9051
CA -1.53862 14.0425 22.1475
CA -0.970833 12.3728 57.6457
CA -9.07718 14.7373 60.3706
CA 7.27069 -5.8916 38.1012
CA 3.84226 -16.1428 41.5225
CA -19.0224 -1.21861 74.8108
CA -24.1258 -0.929982 74.8304
CA -6.58903 -2.04872 32.0381
CA -5.45453 7.72635 60.5641
CA -0.553809 7.38103 72.8966
CA -27.1952 -5.77899 79.5212
CA 0.939379 6.56352 14.8309
CA -30.1105 0.846489 76.6229
CA -17.9843 -16.7003 50.3596
CA 3.87333 -11.0051 74.5893
CA -11.3222 -11.097 49.0113
CA -23.9227 -12.5116 49.9893
CA -0.0492268 2.15606 84.2048
CA -6.40714 21.2056 17.6602
CA -8.5174 -11.5663 82.1032
CA -11.7941 -8.55078 68.9051
CA -2.77012 -5.93618 56.5422
CA -7.70028 20.9644 16.3911
CA 13.0299 7.98394 44.4388
CA -25.221 -2.71149 79.8518
CA 6.32043 20.4296 82.6413
CA -9.50386 7.43105 25.6109
CA 8.3052 -20.4899 59.339
CA 17.3898 -23.8739 85.6319
CA 18.7122 -18.3784 86.9653
CA 7.99592 -14.2343 93.175
CA 4.39923 -19.4997 38.6146
CA -8.2126 11.4875 27.0872
CA -1.82917 2.24529 55.8357
CA 7.62985 -14.0533 46.6961
CA 0.24237 -16.6418 68.4753
CA 1.44005 -18.0266 53.06
CA -8.95086 -14.7445 54.2917
CA -7.49977 16.2371 13.9951
CA -1.37244 7.16417 84.0741
CA -25.1879 -7.152 60.7075
CA 19.9103 -3.03163 67.9143
CA 7.21455 -8.03838 56.0038
CA -3.92674 -1.46468 37.0235
CA -5.91168 15.8087 53.641
CA -1.15353 0.375796 55.3575
CA -12.5662 -12.7909 53.3659
CA 3.74762 -15.5177 85.2282
CA 3.22229 -20.1449 59.4163
CA -4.97055 -18.9449 63.957
CA 13.7573 -3.3087 50.6448
CA 0.961847 8.22843 3.75177
CA 7.3901 -3.87376 67.6613
CA 7.98172 -8.35515 77.3151
CA -7.84416 -17.8407 77.9124
CA 12.7746 16.3754 52.5415
CA 6.30687 -13.5645 44.8245
CA 2.45209 -14.357 91.743
CA 0.397415 -14.5827 74.4603
CA -21.5376 -0.662127 45.6221
CA -28.0808 -4.29672 74.6532
CA 9.88897 -22.1381 61.1015
CA 6.34399 -7.14506 36.5999
CA -23.0872 -1.96035 73.6362
CA 13.6409 11.8194 55.0161
CA -10.4491 -17.9911 72.9903
CA -23.7477 -2.45501 59.4732
CA -11.8823 -0.384953 40.8562
CA 10.2891 -16.2295 80.5998
CA 1.86147 -10.3722 50.0777
CA 8.02025 -13.4164 73.6294
CA -17.5861 0.486472 48.3524
CA -2.5369 -15.304 77.1159
CA -3.01687 24.7755 56.2406
CA -3.40709 -10.8179 76.3545
CA -3.63477 16.1376 15.6207
CA -9.43987 -8.59109 69.265
CA -7.82774 18.491 54.3308
CA 0.322447 16.0198 64.8965
CA -4.22841 24.2078 16.3744
CA -18.764 -4.03519 86.6621
CA -8.43165 -2.50803 69.4009
CA -20.3526 -8.79182 83.95
CA -6.11167 -8.64093 84.4248
CA -23.7565 -0.30493 39.3056
CA -11.4938 -8.77307 86.383
CA 8.12345 -10.3437 79.1948
CA -8.2982 4.47518 72.5504
CA 2.26645 -12.9005 50.8871
CA 9.95512 10.0917 62.49
CA -8.5765 -21.0983 77.78
CA 14.0197 -19.487 87.4513
CA -5.24359 11.5557 27.7509
CA 10.1951 15.6279 67.7815
CA -12.8471 0.548935 46.147
CA 18.2905 -3.23171 72.8835
CA -0.492864 8.47555 76.6838
CA -4.52926 18.0465 14.3468
CA -6.6904 17.6092 65.9091
CA -14.9096 -12.0893 57.6559
CA 20.2207 -22.0825 86.7468
CA 9.30984 -0.855713 64.9231
CA -22.6892 -8.20632 48.6342
CA -3.65653 1.68152 25.0684
CA 6.34135 -11.6254 90.5537
CA -0.222651 12.9918 19.6265
CA 14.0134 4.05031 70.646
CA 5.25796 -21.3215 62.4676
CA 15.5132 -4.92801 54.1229
