489

CA -20.0874 19.4052 71.7165
CA -11.878 43.8832 64.4239
CA -23.3609 0.471891 54.1758
CA -5.1355 -15.661 90.8172
CA 10.2071 12.7161 67.4178
CA -21.9079 13.5038 46.0139
CA -7.60741 -23.0593 34.8184
CA 15.1478 13.6278 41.4034
CA 10.0167 9.06207 67.0621
CA -10.0114 -1.08173 33.3838
CA 26.7389 -28.5035 43.1571
CA 11.576 30.6935 34.9483
CA -26.9031 8.54504 38.3177
CA 17.4029 14.5057 38.5673
CA -4.8442 -3.29633 56.6182
CA 5.51961 -19.1796 55.5495
CA -21.3177 -7.50745 50.195
CA 15.4074 -2.54065 63.8303
CA -24.495 16.153 33.996
CA -10.1931 2.58916 48.1423
CA -22.9274 10.5527 63.4909
CA 6.07672 -7.17969 51.241
CA -14.4931 23.2631 30.6935
CA -3.55227 -15.028 84.39
CA 9.09039 -1.41532 60.1637
CA 1.65294 26.1378 34.2092
CA 4.17836 -21.9827 55.0188
CA -8.3884 7.49085 73.8717
CA -31.8746 0.309735 71.4975
CA -20.851 9.0732 50.1959
CA 30.8721 -10.784 74.1356
CA 14.3154 8.71944 52.3835
CA -12.9547 -30.8778 45.2161
CA -12.7449 -2.99627 39.6278
CA -22.0601 15.468 40.3946
CA -16.5696 2.7242 54.9489
CA -12.0305 5.25822 35.1083
CA 6.79004 -19.9654 63.4556
CA -0.605405 -5.98768 35.9851
CA -18.5596 4.02273 62.7714
CA 19.2769 -0.983246 18.7898
CA -21.7018 21.3546 66.2723
CA -11.6206 -11.1222 50.9944
CA -23.48 10.3912 58.7784
CA 26.9541 8.06917 66.7902
CA -9.41933 -1.6046 38.7887
CA 19.2762 -33.4901 38.2931
CA 16.8415 12.7155 47.4573
CA -20.6852 -9.38056 38.6412
CA -27.0885 3.81619 41.5082
CA 8.8772 16.2994 48.2787
CA 11.7351 12.0514 72.293
CA 0.503841 -15.3087 67.0914
CA -2.51786 -0.663053 61.1384
CA 11.3493 23.9469 74.5356
CA -26.9777 -0.0223616 50.8202
CA 17.3797 14.1626 36.3711
CA -32.5887 12.1156 48.7172
CA -24.0851 1.37777 45.5197
CA 27.1119 8.43631 75.7893
CA -6.77983 4.07286 36.7159
CA 8.20656 3.23148 61.795
CA -36.2904 -1.6277 71.6809
CA 2.88333 -17.0562 60.2167
CA 4.3829 19.8887 38.1483
CA 2.66982 -26.843 85.4385
CA -21.7967 7.80054 68.5279
CA -8.12551 -10.2631 84.7259
CA 10.2153 -3.86536 62.1982
CA -24.8165 14.109 64.2064
CA 15.4217 11.6753 72.7071
CA 21.8981 -20.0312 52.4231
CA -29.8336 9.31066 69.6102
CA -13.0876 -11.7457 48.4748
CA 17.6145 12.7723 57.7985
CA 10.2767 9.36824 70.9591
CA -4.70996 -17.5977 53.2016
CA -23.4902 25.2 40.2352
CA 5.00347 13.1478 44.9508
CA -15.5795 -5.64055 49.4791
CA -21.6411 14.9327 50.0756
CA 10.6714 5.22673 56.8554
CA -5.53993 -15.896 43.5182
CA 7.72269 13.1188 56.348
CA 10.0687 20.5604 72.3542
CA -44.4529 7.99862 49.4546
CA -23.9404 15.9835 59.2452
CA 7.47938 16.4253 60.0025
CA -1.88594 -9.53472 49.8884
CA 21.7379 -37.9939 42.6212
CA -24.0685 15.505 38.3407
CA -11.0231 -10.5549 75.8144
CA -13.576 -0.072803 43.3607
CA 4.24136 24.2927 31.7896
CA -5.91027 18.3828 44.9083
CA -7.91789 6.95109 44.4083
CA 5.25857 19.9965 55.9931
CA -11.1139 0.643987 49.5807
CA 16.7489 19.6156 35.0559
CA 3.43778 25.5514 35.7697
CA -11.4647 24.0289 28.5909
CA -20.5934 5.68071 47.2876
CA 13.9267 25.9886 73.6085
CA -0.248409 -12.3756 54.116
CA 16.2879 16.9429 74.9658
CA 15.3386 3.33037 19.1897
CA -2.50583 -18.3342 51.0852
CA 14.6415 12.1551 46.8421
CA -29.3281 4.66647 69.212
CA -21.7181 16.4902 63.263
CA 2.80891 -13.4772 51.8041
CA 19.7287 9.12039 24.1318
CA 7.05258 9.57964 74.1536
CA 32.4304 -11.6286 76.1547
CA -9.37447 -11.7718 67.0208
CA 16.4797 10.6498 59.3378
CA -32.9439 -6.16985 52.9187
CA 11.6542 12.9785 62.8118
CA 2.95773 -8.47728 78.7425
CA 13.0677 6.70432 58.0419
CA 26.2051 -18.9845 35.9189
CA -3.6762 -10.0401 76.7396
CA -30.238 -19.7054 33.3102
CA -11.0924 -27.6733 46.2255
CA -7.81883 -14.3454 78.7879
CA -6.42149 -34.0605 42.6148
CA 10.3424 6.80181 57.8643
CA 14.878 18.9053 73.956
CA -32.664 1.63486 72.5184
CA 12.6182 17.2169 78.1018
CA -14.5463 -11.964 38.9706
CA 19.8013 7.4103 26.842
CA 27.1974 -25.7045 39.4829
CA 3.1524 -16.693 62.0994
CA 11.593 26.1212 74.6447
CA 23.7873 -20.0401 52.3277
CA -6.0166 -13.0356 74.3868
CA 12.6841 7.59888 60.84
CA -16.0701 5.42092 52.5583
CA -4.5215 -13.492 89.3942
CA -1.21104 -21.2983 80.5408
CA -5.68222 -19.7729 41.804
CA -5.44688 -23.2491 35.9786
CA -19.0092 -6.41502 46.3755
CA -15.419 21.2105 31.1405
CA 13.9501 -0.814995 61.8921
CA 6.72022 18.3392 35.4123
CA 3.65639 28.0804 27.1575
CA -20.3448 1.73529 61.2053
CA -24.8003 8.11177 60.5266
CA 2.91818 27.8453 53.2627
CA -9.46736 -22.204 34.2411
CA -23.4778 11.4309 32.6082
CA -9.82895 3.6208 40.1414
CA 8.7779 14.3724 52.7724
CA 7.49176 11.6784 52.6132
CA 1.86096 -34.5834 57.5544
CA -24.2383 -3.69098 70.0456
CA 3.82599 -17.1709 53.3241
CA 20.5631 18.319 38.0266
CA -35.8254 4.77812 72.1854
CA -21.1789 14.7569 37.9215
CA -13.1557 5.04484 39.7869
CA -24.0385 16.4226 74.9698
CA -2.24937 -2.81451 45.6409
CA -12.5847 45.0554 60.0867
CA 7.2648 15.7697 54.2088
CA 27.2371 1.71424 66.8066
CA 2.19075 -6.26321 51.4306
CA -17.3987 14.0455 48.7094
CA 30.7289 -26.4657 44.3481
CA -20.4564 14.2514 43.432
CA 26.3235 3.95131 68.2191
CA -1.59075 -8.813 81.734
CA -0.620447 -26.5834 51.8733
CA -31.4074 4.96778 73.7295
CA 10.6147 -2.63896 60.7604
CA -10.5115 -12.494 82.2001
CA -38.1113 17.8455 49.2039
CA 12.6605 16.0556 51.2693
CA 7.94621 -17.1386 67.8985
CA -31.7002 -2.96709 60.7115
CA -32.4551 7.24964 70.3541
CA -23.184 20.8505 44.1565
CA -20.2328 13.9179 40.0509
CA 24.9283 -20.7422 37.1307
CA -31.3832 -17.1689 34.3551
CA -4.12395 1.97492 49.2362
CA 5.54433 -17.3574 63.6152
CA -2.02003 5.68941 40.7331
CA 9.34874 5.07372 58.3201
CA -28.9501 6.05932 67.7511
CA 13.2689 12.7556 76.6783
CA 17.6721 15.1042 34.0543
CA -26.3257 2.37277 40.5118
CA -0.953595 -11.4884 49.3312
CA -37.6815 22.2285 51.2354
CA -0.193405 5.22923 44.0926
CA -6.63655 -12.0225 47.777
CA -2.58032 -14.2307 48.4961
CA -36.276 -2.79264 73.1196
CA -39.4381 23.7347 48.6569
CA -5.01833 -21.3974 42.5747
CA 14.7487 -14.4384 72.4715
CA -5.76673 -32.0985 45.5432
CA 5.87737 20.6009 36.8886
CA 23.7609 10.6785 76.3667
CA -2.40578 -18.8483 55.0807
CA -0.820935 -22.5386 55.5973
CA 28.9101 2.66969 69.0577
CA 1.7615 -10.736 52.1925
CA -8.67736 -12.7368 74.0764
CA -4.26799 -19.7499 84.5915
CA 6.41865 28.4016 38.3437
CA -8.77516 3.24899 41.8095
CA 0.533728 -23.2032 85.2259
CA -1.44072 27.0766 75.6904
CA -15.4991 14.8206 38.1656
CA 14.7986 17.7278 76.0741
CA 17.2935 8.20674 68.3835
CA 21.3803 5.1008 26.8526
CA 21.9817 -16.2985 52.1871
CA -34.8466 24.6752 49.955
CA 18.3796 9.62699 71.7854
CA 4.42521 -15.0591 85.3485
CA -21.6989 -1.28408 48.8422
CA -15.6611 9.26479 34.1959
CA -11.6874 -17.5593 40.9783
CA 17.4668 -3.38401 18.8236
CA -11.3043 -10.6009 78.5658
CA 20.3934 2.24155 70.3161
CA 6.44061 -24.8958 55.7788
CA 8.18122 8.89661 59.2151
CA 17.2034 12.4281 38.7604
CA 16.1479 -4.37298 49.0111
CA -10.6273 47.1299 67.8843
CA 0.477106 -0.0249233 54.8135
CA 31.1428 -12.3766 69.6621
CA 11.8455 13.6004 57.3703
CA -31.4479 -16.8398 30.0149
CA 4.9546 -4.57108 53.3483
CA -36.1649 4.6262 69.1532
CA -22.7986 17.0265 37.0131
CA -2.14401 -11.709 77.9922
CA -3.89352 -1.26937 45.9019
CA -41.9897 23.1692 48.7131
CA -30.774 -7.39313 72.4082
CA 10.3289 18.4216 71.7965
CA -20.2374 4.40994 52.5616
CA -14.781 21.5643 36.6429
CA 18.9039 -26.1506 42.3689
CA -40.0439 13.9031 49.6586
CA -19.6999 -0.504242 53.3932
CA -17.3196 6.43479 36.4595
CA -24.4612 15.4243 52.0988
CA -4.05224 -8.40922 82.2765
CA 24.2367 1.41524 73.1269
CA -22.8933 -1.01509 50.3299
CA -2.61318 29.1906 75.4446
CA -3.23805 -8.76938 69.1307
CA -4.80263 11.0673 50.6042
CA -22.9426 6.98076 65.0724
CA -0.2544 23.8307 35.6579
CA -9.49986 4.74653 37.0782
CA -30.3829 -10.9711 67.0439
CA 7.31286 13.7956 39.9228
CA -1.01012 13.5076 59.8148
CA -21.7133 19.7599 73.0312
CA -4.02942 1.91651 54.0271
CA 26.6738 4.75801 71.3421
CA 2.7565 27.849 55.6953
CA 4.90092 25.5129 52.1587
CA -35.0445 12.0912 69.6582
CA -33.0348 0.732623 77.846
CA 10.5823 11.3196 62.4284
CA -9.13761 -10.9079 48.9484
CA -18.5201 18.7559 36.1743
CA 6.36419 -25.0622 85.1793
CA 7.76481 -22.1382 65.2019
CA -13.5455 9.27864 40.4837
CA -2.81704 3.38336 59.3409
CA -33.2625 1.79319 70.035
CA -32.8374 -5.40771 57.7828
CA -7.47471 -0.0393593 51.3406
CA -27.2716 15.5231 50.5154
CA 4.06277 15.7045 59.827
CA 15.8715 21.3106 73.72
CA -6.62149 -14.9692 85.728
CA -36.778 13.2058 73.2234
CA 7.77678 -9.81057 82.9197
CA 9.19624 -13.2715 82.4829
CA -36.0748 3.14154 74.3535
CA -4.27097 -21.2208 39.2592
CA 17.1926 9.35614 28.4229
CA -7.08179 3.98963 75.4374
CA -14.2361 16.0701 51.289
CA 3.02312 25.4575 40.5672
CA 6.73687 16.554 39.5421
CA 26.1594 -16.2385 42.2336
CA -35.7878 6.51301 68.375
CA 2.29187 1.24903 40.9193
CA -25.0356 20.3939 44.6406
CA -4.33899 -7.78628 86.3282
CA 15.436 7.34326 51.1089
CA -7.93402 -8.97706 47.84
CA -25.6995 9.64875 48.8638
CA -4.48487 -17.2741 44.554
CA -20.2086 -11.3465 41.7789
CA 11.9567 22.5512 78.7342
CA -21.7753 -5.51203 48.8593
CA -15.1102 18.2381 32.7868
CA -36.705 -1.2753 49.7445
CA -22.6337 19.2011 59.2662
CA 3.70187 -25.6993 56.1866
CA 3.25596 12.7282 58.6096
CA 2.69425 3.92894 53.7035
CA -41.8567 7.65346 45.7227
CA -20.3919 -0.0619301 55.5305
CA -7.67901 -12.5022 65.1388
CA 4.59399 -26.8269 87.6774
CA 16.5647 11.4721 55.1394
CA -35.5338 17.3288 45.6427
CA -4.93062 33.3291 50.8525
CA -3.45659 5.28087 47.8899
CA 9.04227 16.1815 51.674
CA 26.9819 1.42869 71.2806
CA -6.19939 -24.632 33.8893
CA -26.7973 12.5071 49.4427
CA -19.5144 -10.227 43.8272
CA 4.88623 -0.292843 59.9755
CA 15.9474 0.428059 22.1486
CA -26.5271 17.5079 71.4885
CA 22.0055 -15.6008 44.739
CA -15.9033 -2.80555 37.7691
CA -4.18075 -7.62884 77.9734
CA -26.0695 6.42232 59.5399
CA -24.8803 14.201 35.7459
CA 0.130114 -10.1311 77.3023
CA -32.0204 -10.8589 58.9454
CA -16.6338 16.9495 35.3439
CA -23.6422 4.51281 69.6047
CA 5.34739 16.0243 53.4414
CA 4.00661 8.80117 43.8976
CA 2.43554 -22.9354 56.6786
CA -7.17197 -12.4064 83.9843
CA 10.7143 22.6125 69.6081
CA -2.89335 -14.0451 82.9521
CA -2.96787 -13.7807 68.0788
CA -4.57762 -15.065 70.2888
CA 23.8259 -31.3938 40.3726
CA 18.2065 19.1221 32.8168
CA 24.7141 -25.9878 65.5028
CA 4.94568 27.766 54.8584
CA -30.7457 -4.58968 58.933
CA -26.36 14.8683 41.7703
CA 0.161009 -10.8635 72.8699
CA -0.0498235 -10.7339 82.2686
CA -18.5254 21.031 39.1122
CA -0.559144 -15.4968 55.4798
CA -25.6481 12.1 36.3833
CA 15.4363 22.4355 75.5324
CA -31.4157 -2.80689 67.5595
CA -24.9058 10.2008 61.9696
CA 3.05409 22.3554 51.5761
CA 9.20699 27.3788 34.9262
CA 12.6813 3.63952 56.7351
CA 1.5799 25.9087 56.3941
CA 3.52997 -31.3794 57.0265
CA 29.6002 -12.2854 72.7004
CA -35.5996 -7.78718 57.2795
CA -1.12872 -18.8492 47.2498
CA -29.41 3.62347 66.4551
CA 5.08913 -17.8179 59.9239
CA 15.5827 10.0769 61.469
CA -8.60458 -3.93947 38.9229
CA -7.25901 2.77753 49.0365
CA -34.3825 13.6268 51.4772
CA -11.5856 -5.39461 40.5649
CA -7.72114 0.417054 41.2194
CA -22.8007 -0.0115054 70.5111
CA 0.339832 -5.1877 47.4811
CA -20.4042 17.6762 43.495
CA -20.0618 -2.53741 46.28
CA 12.8412 26.6273 78.317
CA -18.238 36.279 47.4021
CA -34.6159 1.42567 73.2979
CA 17.8992 7.19326 45.8779
CA -21.2646 18.837 37.5421
CA 6.10992 10.6618 47.1375
CA 6.43762 -2.90003 59.7208
CA 11.9819 4.22057 58.967
CA 27.4031 -18.5802 38.2922
CA 10.1719 17.0598 50.4459
CA -25.465 4.50823 40.3722
CA -2.89662 -13.5896 77.4901
CA -26.7031 17.6498 73.4974
CA 30.7495 7.65377 71.3418
CA 6.29175 -2.48741 56.3549
CA 6.38031 1.68681 58.5791
CA -22.1961 -5.3553 45.2958
CA 4.31146 -17.6983 66.4488
CA -22.9478 6.05589 66.9529
CA 1.42926 6.76464 43.1364
CA 21.0075 -33.8307 41.9194
CA -22.6137 16.5744 49.5368
CA -19.5287 17.658 41.7019
CA -34.7475 -0.312507 68.1188
CA -22.0863 -10.752 52.2999
CA 42.7179 -0.778688 45.9439
CA -30.6977 14.3259 47.0024
CA -28.1563 10.6332 48.8084
CA -27.1389 17.4721 47.8504
CA 1.69471 17.8958 54.6774
CA 29.6879 -9.64061 73.2195
CA 25.0809 -16.1916 49.3145
CA -15.0291 0.936431 41.6698
CA -0.335999 -22.5903 82.4104
CA 18.7153 5.99415 71.614
CA -2.43067 8.37488 47.4544
CA -7.55746 -30.5719 45.1796
CA 14.7025 23.6506 80.9874
CA 15.8179 -13.4422 70.0378
CA 19.5663 5.31543 26.0574
CA -30.1049 18.7773 43.4417
CA -22.8429 17.4522 42.8962
CA -35.0584 14.6785 75.4563
CA -22.4219 13.2244 41.009
CA 11.5928 0.63675 65.1452
CA -20.935 16.541 38.0131
CA -9.70913 -18.798 44.9399
CA 14.5389 11.4358 53.0752
CA -21.5698 20.6356 70.69
CA -16.626 41.2932 47.2026
CA -18.7698 14.5529 60.4261
CA 2.9823 19.1083 69.3773
CA 11.1573 -8.17834 83.9071
CA -33.6542 -0.476434 71.2562
CA -33.1707 12.9425 75.2372
CA -26.5351 5.03638 45.1086
CA -7.02359 -15.8452 47.7613
CA -15.6105 16.2565 36.673
CA -20.165 21.7734 38.7358
CA -1.85678 -11.2191 71.905
CA -0.000969819 -8.98936 49.5969
CA 5.44055 -15.2603 83.7345
CA -16.4704 4.51266 35.7592
CA 0.937051 -15.5648 85.9738
CA -9.57604 -2.52424 41.1877
CA -5.16966 -10.1687 85.8425
CA -34.8218 -5.43678 54.3489
CA 12.6765 27.2686 32.2843
CA -16.2035 -12.4978 44.2894
CA -27.8911 5.36046 74.319
CA -6.14623 -17.16 46.3035
CA -5.15176 -9.42675 65.6802
CA 11.0655 7.37158 55.4504
CA -30.9975 11.2844 50.5028
CA 8.34432 5.40416 72.0842
CA -10.9066 -4.22316 38.7667
CA 15.1286 19.8254 70.2133
CA -0.456997 -0.0523513 47.4114
CA 23.8428 -29.1736 38.2106
CA -36.3957 0.257596 73.4486
CA -33.916 5.38667 72.5962
CA -4.52138 -12.6378 70.2852
CA -1.97107 -10.8329 75.9166
CA -20.0609 18.2073 46.7776
CA -21.8791 14.7016 66.1099
CA -3.97855 5.29418 42.425
CA -35.382 24.1394 45.9915
CA -8.04885 -12.5758 68.8178
CA 6.74554 24.0309 75.1381
CA 4.18182 -12.3696 50.9085
CA -29.0074 1.4379 74.7643
CA -23.9225 21.9827 41.165
CA -25.7398 10.1081 54.0439
CA -6.08398 -5.90998 56.2614
CA 3.65627 -30.1293 55.3666
CA 2.91032 -18.1384 56.9672
CA -26.0922 9.86939 33.4087
CA -45.1304 8.03134 51.2208
CA -16.9461 -10.0977 41.9069
CA -13.6192 -7.03305 38.6564
CA -27.8692 -1.89217 56.3673
CA -1.23183 -8.65812 72.57
CA -6.06964 -10.9278 76.9946
CA 12.9931 10.3591 50.4107
CA 11.1572 -0.775139 62.2373
CA 6.51064 5.88107 55.5841
