489

CA 4.96156 9.26522 68.1081
CA -0.484276 12.7959 77.9862
CA -1.08639 11.6912 21.5037
CA -20.6993 -1.74823 75.5753
CA 8.83603 13.3798 54.0895
CA 10.5271 -20.9197 86.6275
CA -11.948 -1.80627 54.0098
CA -13.8303 26.0411 68.5677
CA -8.36929 13.0687 15.7436
CA 11.2913 -7.10892 42.4676
CA 12.459 -8.79278 46.8445
CA -9.7154 -1.49837 48.6092
CA -19.8787 7.50236 79.9371
CA 7.51752 13.4286 73.4043
CA -18.8587 -10.8022 83.5957
CA -12.7666 -10.2139 66.7974
CA -1.27263 -14.2491 85.0494
CA -9.75574 -7.65908 33.939
CA 9.82986 -10.6151 63.5081
CA 11.5984 -12.3265 90.6805
CA -6.65648 18.4463 58.8633
CA -12.0489 7.49863 84.3984
CA -2.91383 -10.0393 71.3044
CA 6.21272 -26.7889 89.0699
CA -7.10729 14.0271 20.2038
CA -10.2591 14.0002 17.6332
CA 3.1621 -13.3234 52.2738
CA 2.77226 -10.4837 96.7065
CA -22.1805 -8.8888 75.8862
CA 9.78642 14.6247 57.4686
CA 1.22128 4.93764 88.9392
CA 3.45048 -9.76149 41.0603
CA -7.8427 -5.97054 56.9448
CA 1.4692 6.21593 71.9249
CA 1.329 -6.46782 26.1291
CA -4.14945 1.1123 76.0579
CA -4.91435 -8.65558 48.1854
CA -6.94707 -7.70141 54.6655
CA -0.451842 1.82614 6.64463
CA 17.2182 -3.48954 55.7533
CA -25.8638 -18.9428 61.4869
CA 8.74822 -18.1211 85.4555
CA 12.637 -22.8887 84.1891
CA 0.154413 -28.8442 47.5648
CA 7.75575 -15.2761 77.4032
CA -0.48963 13.481 9.73122
CA -5.87276 2.59356 48.3234
CA -14.2919 -10.3611 46.6356
CA -13.7921 -0.245487 73.6354
CA -23.9931 -1.4559 79.5214
CA -19.639 -15.6114 87.6458
CA -11.7767 -15.879 68.3004
CA -23.4112 -15.3905 50.2955
CA -4.12581 -3.12081 89.2692
CA -18.3141 7.6154 48.1648
CA 14.3944 -0.290067 66.7795
CA -25.8707 -11.0367 56.4846
CA -1.21161 0.667746 68.8682
CA -24.6904 -5.48596 65.3775
CA -11.1248 19.124 18.3537
CA -25.7912 -14.9785 56.7735
CA -20.9095 0.484952 75.2018
CA 9.60977 3.18204 55.5177
CA -6.30429 -14.9659 49.2164
CA -5.27479 0.408244 58.5432
CA -12.9966 13.2273 50.6552
CA -4.35239 -15.2423 50.573
CA 6.21116 -22.3768 87.8734
CA -10.5664 -14.2494 62.2151
CA -16.6231 12.5526 54.1576
CA -2.2147 12.6151 79.5392
CA -0.741924 -8.1634 48.5746
CA -11.9441 -2.0129 76.8634
CA -22.64 -5.72756 79.9386
CA 14.9519 -2.90122 72.8535
CA -15.2839 8.18166 81.8432
CA -1.29564 -9.8346 51.7061
CA -6.8934 5.41139 45.7193
CA 3.62299 5.19268 55.8232
CA -6.19469 10.4477 80.62
CA 12.999 -6.52009 54.2695
CA -6.54356 -19.6086 60.524
CA 1.14142 14.7391 78.9528
CA -8.75279 -5.89439 45.1668
CA -3.05536 -7.84582 31.0802
CA -1.0255 13.5173 25.5737
CA -20.0769 3.0896 88.8791
CA -6.09211 -18.0901 54.0193
CA -19.0096 -11.0611 65.2809
CA -0.0956031 -0.394692 82.2197
CA -10.8957 18.69 16.1626
CA 5.13787 -22.7155 51.1208
CA -1.53186 16.9186 66.2494
CA 5.87094 -10.6544 61.055
CA 0.764186 -6.62205 97.473
CA -0.498222 21.2489 19.526
CA -10.8926 3.95036 40.7861
CA -17.2222 -13.4836 51.5153
CA 1.37484 -10.9175 53.3104
CA -9.94612 -7.67075 65.8811
CA -8.93519 7.18549 83.7255
CA -5.13318 12.8014 11.3801
CA 15.1432 -12.179 50.8449
CA 5.60444 -2.52761 84.0818
CA -23.8644 -5.09781 85.1317
CA -1.89667 -5.50736 28.6846
CA -7.01555 -11.7894 61.817
CA -0.167059 -2.81963 36.3444
CA 5.20696 6.21816 53.2172
CA 0.744116 -6.92467 53.4306
CA -15.7851 -0.840326 77.8982
CA -9.76853 -3.41891 44.8186
CA 13.538 -2.97041 69.0368
CA 6.11259 10.6855 57.0724
CA -18.5324 7.44279 72.6265
CA -5.60615 3.93248 30.2777
CA -5.26306 -5.70423 88.129
CA 7.47403 -10.9483 50.3517
CA -10.349 -16.3284 69.7614
CA -17.6628 4.74254 58.9837
CA -8.42026 6.37637 58.0603
CA -5.41561 -16.749 50.6815
CA -2.81715 12.8748 18.2397
CA -13.7507 -2.38962 39.7342
CA 1.72012 13.7698 67.1206
CA -9.78496 -15.3608 74.8573
CA -7.90677 -9.11013 90.0905
CA -3.20494 -20.0692 86.0627
CA 15.6346 -5.01841 59.0777
CA -2.18704 -3.02996 89.6349
CA 6.41919 9.53863 63.5301
CA 3.53339 2.64126 71.6971
CA -7.01289 -15.6552 60.4601
CA -1.45741 -19.7194 54.8011
CA -11.7303 -13.055 42.7209
CA -19.3886 0.389658 65.1913
CA -6.34548 9.91126 58.0015
CA 4.84621 8.26273 18.4892
CA 13.3276 -8.10433 65.952
CA 3.54296 -12.3696 68.8121
CA -6.40816 -21.4428 76.6896
CA 12.9412 3.63856 54.2969
CA 6.19049 -9.05055 59.4726
CA -8.4248 -19.8123 69.3589
CA -10.8883 7.65435 82.5991
CA -10.5412 1.37314 50.562
CA -9.45879 -0.72453 51.2355
CA -6.64142 -10.5581 40.3374
CA 1.09091 7.71396 7.04539
CA -15.4879 -16.1375 77.3697
CA 1.20291 11.4124 67.0886
CA -0.053936 -0.965927 85.4355
CA 3.05792 22.1094 80.6805
CA 6.65225 -23.7393 89.0075
CA -5.03193 -13.1592 96.5443
CA -0.410797 -15.6371 56.1948
CA -5.70709 -0.994888 52.6737
CA 0.985343 19.6485 76.2903
CA -22.7518 -7.7538 77.3077
CA -15.9142 -11.7031 87.6641
CA -10.3025 26.4974 67.4084
CA -0.442673 -11.2704 77.7663
CA -10.8273 4.02092 82.7611
CA 4.68024 -6.82168 63.2385
CA -8.61129 -13.62 73.9327
CA -2.53128 -12.0515 71.6213
CA 4.13108 21.9999 59.3948
CA 5.69621 -5.22232 49.0795
CA -8.72305 21.0291 68.3441
CA 7.68957 1.09274 85.7293
CA 10.5831 13.4735 55.4555
CA -9.58643 13.9388 13.7036
CA -8.94818 -3.34529 67.595
CA 1.54089 -17.6713 73.6736
CA -23.0689 -7.59315 86.0796
CA -27.2418 0.906496 75.6184
CA -6.10188 6.4309 42.5604
CA 2.84735 -16.3398 57.4123
CA -26.4958 -10.7606 48.7695
CA 5.5108 26.3424 56.4433
CA -1.94351 8.24194 26.5625
CA -6.10834 -7.89425 32.3074
CA -6.07117 -18.4597 76.9583
CA -0.506309 -16.1907 70.286
CA -14.4519 -14.7229 38.2139
CA -23.2348 -0.0877466 77.8214
CA 2.96187 -1.74356 51.0292
CA -8.61388 -11.0419 69.3379
CA 3.71619 16.7528 17.407
CA 0.28316 2.92519 71.6586
CA -4.92359 -15.8638 86.2804
CA -6.66191 -4.18544 81.2577
CA -9.16323 -1.79774 41.4558
CA -17.9986 8.98439 74.3906
CA -21.0666 -2.86503 53.6513
CA -24.1737 -8.36627 44.19
CA -10.5485 -14.2679 67.4946
CA 2.62188 6.59842 18.5084
CA 4.54635 -3.64444 49.2156
CA -4.41211 -6.8334 85.6507
CA -3.58093 22.3522 15.7385
CA -0.0891083 -8.40646 74.6023
CA 6.78256 -16.334 60.1829
CA -5.74864 -18.8728 70.0527
CA -0.89834 -6.33682 85.8108
CA -7.3441 5.53515 51.7317
CA 5.34208 -1.14137 36.3111
CA 4.86987 6.09612 18.6799
CA -19.513 -8.5229 64.7596
CA -8.63503 7.40915 39.4643
CA -15.4927 7.12603 85.3119
CA 4.59177 -15.282 61.7997
CA -11.6037 -4.79602 67.164
CA -10.8026 2.8195 39.0937
CA -2.74277 -15.2879 89.8562
CA -6.59941 -14.0101 45.6337
CA -28.1938 -16.9695 53.1049
CA 7.23613 -22.0309 81.1847
CA 6.69858 2.72591 54.6107
CA 2.2129 23.6016 56.5854
CA -24.6784 -14.1889 60.7436
CA 1.08257 14.2226 12.4596
CA -3.9398 8.80187 66.9561
CA 9.7682 -12.5226 94.7025
CA 9.73318 4.34357 53.9151
CA -3.41931 -2.23641 32.8894
CA -27.4911 -16.2072 62.6817
CA 9.30251 -8.71397 40.388
CA -0.891804 -10.4724 56.5148
CA -0.381176 -27.113 44.5185
CA 13.3777 -3.12749 55.5931
CA -3.96195 -13.6582 61.1583
CA -24.6662 -4.98995 52.2762
CA 1.18365 2.92753 7.92218
CA 13.4457 -3.62533 59.0912
CA 4.03758 0.481018 92.2228
CA -7.14862 -11.3688 52.869
CA 17.8714 0.461132 64.7816
CA 1.43655 -14.6463 38.7145
CA -1.15781 0.168011 73.715
CA 8.65426 -15.5174 81.3473
CA 2.14816 -11.3955 46.1229
CA -8.53038 -8.66622 67.6406
CA 12.1696 -8.53136 52.247
CA -25.9952 -3.98407 67.9676
CA -11.4594 0.173507 74.3222
CA -0.95292 -14.2793 42.3675
CA -2.59911 15.9321 75.864
CA -1.52189 4.51872 85.9859
CA -25.5406 -2.78183 71.1037
CA -3.53091 21.8326 18.4217
CA -21.9922 -5.09552 83.4446
CA -16.1574 -9.70445 46.9629
CA -7.59183 -3.49781 77.8121
CA -5.52857 6.90557 57.6146
CA -2.01215 -17.7699 86.9025
CA 2.04426 -1.1826 96.0295
CA -19.8878 -12.4759 80.7309
CA -10.9107 22.0208 61.9958
CA -15.6377 -18.6093 73.6319
CA 6.92806 -1.58936 72.6192
CA 7.97408 -8.38406 97.3641
CA -6.49458 21.9172 65.1961
CA 6.45497 -13.8032 72.8121
CA -8.87759 13.1169 19.4111
CA 2.39433 1.12338 86.8446
CA 5.09612 -4.9396 90.6593
CA -16.2661 0.264712 42.5026
CA -19.5661 4.64835 76.0354
CA -5.24327 9.10967 53.1589
CA -11.5113 -0.872568 81.017
CA -16.7437 -3.20299 50.2298
CA 2.40706 25.7759 60.3968
CA -7.98432 13.9481 18.0684
CA -7.59207 -11.5314 38.8554
CA 4.18527 0.698084 46.8637
CA 1.43744 16.1901 7.07732
CA -21.2067 -19.0474 89.5558
CA -0.767395 7.19263 -0.929679
CA -5.52794 12.6941 15.8505
CA -4.64165 20.0157 59.5985
CA -9.87854 -8.47196 64.0104
CA -4.57649 11.1406 13.8343
CA -12.2811 7.4247 74.398
CA 5.99711 -15.0486 58.0572
CA 9.54075 2.70465 59.5281
CA 3.75141 0.575593 88.278
CA -5.11589 -5.57926 65.5681
CA 1.86481 -6.10859 51.6673
CA -4.33085 -10.1124 74.0876
CA -1.11779 4.18792 7.64772
CA -9.72141 9.35407 78.3558
CA -2.72387 15.3123 65.8688
CA -2.7427 0.740431 46.8088
CA -19.5739 -13.881 66.9355
CA 1.19932 -1.9769 94.256
CA 14.0251 -13.7237 64.2673
CA -6.8428 12.4011 75.9253
CA -1.58399 9.87365 77.1627
CA -5.88849 19.6308 62.6449
CA 7.87212 -23.4016 50.6211
CA -8.01349 -8.30474 94.3403
CA -4.47773 6.65394 70.8852
CA 5.8186 -22.2178 41.3394
CA -12.3856 8.90633 53.0749
CA 9.36325 -5.10331 68.5096
CA -22.5337 -1.98642 42.605
CA 13.959 -1.15675 74.3127
CA 3.68863 -12.6888 35.064
CA -25.088 0.10921 63.2727
CA -5.35112 -14.1698 88.9458
CA 1.07899 -19.3657 39.4064
CA -9.99498 -5.01737 74.0386
CA -1.5838 14.6713 18.738
CA -15.2786 1.76794 50.2791
CA 1.52326 10.0102 10.2229
CA -2.01182 2.96611 51.4451
CA -11.9258 -0.691796 42.0794
CA -22.4244 -16.6191 79.442
CA -24.9331 -6.66415 42.519
CA 4.92236 1.06392 84.9297
CA 17.5683 -15.9749 89.2799
CA -2.19657 -12.9705 86.5734
CA 5.40764 -5.80591 93.7294
CA -18.8194 3.39303 64.011
CA -25.3082 -0.388044 82.7306
CA -9.77338 11.7036 53.1576
CA -10.7308 -9.07434 45.1719
CA -22.9039 -2.39217 80.6398
CA -7.56922 16.5584 57.4794
CA 3.87921 -14.926 37.7635
CA -1.22146 -10.0918 95.8259
CA -8.70888 15.638 20.8666
CA 5.99656 -18.7004 75.8621
CA 13.9397 10.7952 57.5794
CA -21.0133 2.52544 79.0364
CA 17.3001 -5.17953 56.7285
CA 1.39452 -0.690267 38.9282
CA 8.91368 -9.65536 43.2867
CA 10.5397 -24.4018 86.5146
CA -3.44296 -2.2944 58.6297
CA -2.48159 -6.15435 31.955
CA -3.61761 15.5859 25.397
CA 5.79563 15.1135 15.6306
CA 4.27565 -14.7467 52.8061
CA -4.47528 -17.1359 70.888
CA -9.74611 -12.0918 36.5343
CA -5.95069 6.04349 25.8749
CA -9.64074 -10.1529 58.6983
CA -2.08966 2.82631 80.2533
CA -2.87943 -2.68466 7.20034
CA 7.69323 -22.92 85.0991
CA -3.94524 6.38486 83.1675
CA 0.691806 5.42745 8.41147
CA -12.8903 7.39675 55.5737
CA 2.65898 -8.97948 82.3625
CA -23.4761 -13.0718 64.1744
CA -8.15712 -6.1351 53.683
CA 17.3599 -6.61093 61.9552
CA 4.65933 -14.4894 81.5636
CA 0.821058 2.09241 12.8663
CA 5.68923 14.4264 70.7301
CA -1.10364 -14.6628 89.1549
CA -3.59724 -5.81979 51.6497
CA -0.393069 8.3272 71.2323
CA -2.48321 -14.5004 71.4076
CA -30.4434 -0.685389 70.8919
CA -3.98444 -15.7392 46.5857
CA 13.5083 11.6069 59.6937
CA 3.88085 11.9123 71.8242
CA -7.13748 -6.68243 88.1522
CA -17.8919 3.1084 83.3847
CA -8.23624 24.007 15.8339
CA 1.14606 -24.1298 41.7464
CA 0.90731 -5.01024 89.4867
CA 2.06546 -16.4596 53.0581
CA -9.78691 -7.4536 90.2713
CA -11.7502 5.71975 83.5379
CA 2.50453 -3.97877 51.9008
CA -3.75924 -7.12721 29.3923
CA 2.04103 -5.51419 56.157
CA -7.42353 3.03941 39.5568
CA -15.9455 2.14112 84.2692
CA -14.3097 20.9299 16.8333
CA -6.83461 10.3981 65.3648
CA 14.5113 -6.29425 59.6777
CA -3.13022 4.50749 69.4395
CA -6.58903 -2.04872 32.0381
CA 0.690214 -1.50098 48.9723
CA -6.30505 -8.18576 91.9522
CA 5.896 -15.8529 73.3716
CA -0.435297 -21.8213 84.3959
CA 13.7435 -4.51819 73.7902
CA 1.92563 8.89022 19.8782
CA -10.3375 -11.6003 57.7646
CA 1.2769 13.2686 17.3573
CA -13.2952 3.53645 56.0571
CA 12.661 -10.2977 62.1325
CA -2.04708 7.41082 70.2531
CA -1.37344 -11.351 46.5169
CA -5.42515 -16.4905 84.2208
CA 4.80151 -15.639 48.6386
CA 5.07023 23.8892 53.6211
CA 16.4395 2.27459 69.5126
CA -6.64159 22.1202 15.4871
CA 6.32043 20.4296 82.6413
CA 13.3368 -12.6389 51.9522
CA -0.879765 6.92282 80.8682
CA -4.92551 -5.65903 30.0718
CA -6.8152 -13.7871 61.6447
CA 10.2073 -3.66932 70.2057
CA 5.97098 4.58706 60.9129
CA 8.7919 13.2774 58.8501
CA -28.1565 -0.822865 77.9555
CA 0.270412 11.8566 64.1033
CA -14.2147 -7.03056 90.2716
CA 4.54078 -7.22156 57.9622
CA 5.79027 -25.6804 92.6461
CA 0.759551 -21.0012 53.0352
CA -8.63427 -5.41157 67.9878
CA -0.955643 3.19789 77.9306
CA -0.238627 18.4817 57.6605
CA -0.927032 -19.8032 85.3726
CA -3.92674 -1.46468 37.0235
CA -3.13376 -20.0285 61.8013
CA -1.15353 0.375796 55.3575
CA -5.36393 1.89661 28.4034
CA -16.6777 4.30831 86.055
CA 13.1225 -15.8196 82.7505
CA 12.2786 -4.82916 69.0561
CA -8.68753 19.7363 62.3221
CA 0.961847 8.22843 3.75177
CA -8.38094 14.3993 60.0548
CA -12.56 -4.39877 78.052
CA -4.29786 12.7865 66.7399
CA 2.18927 -17.7736 58.9223
CA -1.36123 -15.6221 39.2936
CA -2.75364 -15.0443 61.2306
CA -20.6784 -5.27434 44.738
CA -11.1192 10.1643 17.2855
CA -10.5549 17.4773 58.7027
CA -5.47961 -6.29702 83.1585
CA -29.6228 -3.46616 66.3863
CA 4.03229 -12.2754 83.0814
CA 2.30322 -24.3245 54.2779
CA -10.4491 -17.9911 72.9903
CA -15.6111 -11.7135 48.8197
CA 17.0731 2.77886 54.5837
CA -18.4504 -7.18252 70.5458
CA -20.2212 -5.73449 75.6969
CA 11.1156 -15.8574 75.5288
CA -19.9854 -13.5458 63.9249
CA -11.6371 -16.2698 65.0908
CA -6.19897 -17.3489 62.5515
CA 4.0339 -24.0861 89.0807
CA -0.715892 14.8952 76.5387
CA -16.378 7.76799 50.0659
CA -5.33844 -8.0563 66.8308
CA 10.6717 -8.3325 64.3734
CA 13.7425 -7.67869 55.8344
CA -2.97993 -0.0247752 4.18462
CA -14.0019 -17.2011 73.8733
CA -14.5376 4.68693 47.0002
CA 4.77287 -9.25329 94.6431
CA 9.54947 10.0609 59.531
CA 11.0062 0.367272 56.3186
CA 2.79669 1.5914 45.2444
CA -12.1876 4.22605 42.2777
CA 12.169 2.28517 62.3137
CA 9.95512 10.0917 62.49
CA -5.30243 -17.648 59.9806
CA 14.0197 -19.487 87.4513
CA -20.315 1.4702 63.048
CA -3.6897 -24.239 61.6424
CA -26.1045 -11.5415 74.5511
CA 10.2778 2.49347 53.8956
CA -18.1038 -8.46549 73.3502
CA -11.4189 -5.97066 85.901
CA -15.2414 -14.6098 66.314
CA -0.203604 -17.3262 78.5977
CA -1.77224 -6.37188 69.3535
CA -4.44906 5.40038 57.1817
CA -24.3678 -3.0317 62.1865
CA 1.07 -2.94336 85.8842
CA -7.56625 7.9088 80.2328
CA -7.9366 18.4807 60.6019
CA -7.1054 -19.2429 67.9501
CA -6.47129 9.3643 19.835
CA -7.60657 0.0495386 52.9076
