489

CA -25.1503 -10.5238 75.3174
CA 7.51942 -12.3285 55.1501
CA 3.95924 -3.22103 97.6663
CA -20.6993 -1.74823 75.5753
CA 8.83603 13.3798 54.0895
CA 0.618887 -1.05074 60.7111
CA -11.948 -1.80627 54.0098
CA -11.2548 17.4898 61.4885
CA 2.67146 15.8132 16.262
CA 11.2913 -7.10892 42.4676
CA 12.459 -8.79278 46.8445
CA -18.2847 -8.10386 72.7031
CA 4.43229 -17.022 91.1744
CA -13.623 -0.915706 64.1885
CA -18.8587 -10.8022 83.5957
CA 17.2977 -7.8031 59.8623
CA -22.2837 -8.1895 73.5442
CA -7.69063 4.4296 31.2936
CA 9.82986 -10.6151 63.5081
CA 11.5984 -12.3265 90.6805
CA -6.65648 18.4463 58.8633
CA -12.0489 7.49863 84.3984
CA -2.91383 -10.0393 71.3044
CA -0.44685 -16.3374 58.0066
CA -18.7125 -8.8378 80.8791
CA -10.2591 14.0002 17.6332
CA 3.1621 -13.3234 52.2738
CA 2.77226 -10.4837 96.7065
CA -18.0545 1.77339 54.2916
CA -0.170727 -11.6017 97.3083
CA -4.48708 -24.3962 65.7257
CA -3.92061 -17.181 70.6489
CA -9.61158 -27.5912 45.2941
CA -8.09096 -1.22769 39.2405
CA -13.8651 -4.28529 92.4516
CA 8.7833 -18.1427 74.9164
CA 6.73449 4.82074 56.2214
CA -6.94707 -7.70141 54.6655
CA -0.451842 1.82614 6.64463
CA -19.7228 -21.1757 73.136
CA -18.3487 -7.61116 89.6116
CA -4.69418 1.73558 48.2736
CA 0.668442 -25.9865 48.7986
CA -27.4691 -4.53375 69.6207
CA 0.101225 -8.89842 45.4705
CA -4.47322 -10.722 39.6478
CA 9.29017 -5.94284 46.5895
CA -4.9454 -2.6244 28.828
CA 1.69493 -7.17624 96.4706
CA -3.39815 -6.01004 48.5056
CA -19.639 -15.6114 87.6458
CA -11.7767 -15.879 68.3004
CA -8.70772 -20.738 71.2603
CA -7.52066 -6.20105 40.012
CA -13.9598 -12.5771 75.1056
CA 14.3944 -0.290067 66.7795
CA -1.16207 8.09027 75.1905
CA -8.62418 -9.13798 75.8235
CA -24.6904 -5.48596 65.3775
CA -11.1248 19.124 18.3537
CA -25.7912 -14.9785 56.7735
CA -17.2912 2.15772 85.6917
CA 9.60977 3.18204 55.5177
CA -1.49251 -3.31836 54.6017
CA 1.71363 5.12588 72.8426
CA -23.2515 -12.5251 56.9938
CA -5.38791 -2.03502 43.4206
CA 6.21116 -22.3768 87.8734
CA -14.9251 -17.9734 67.4467
CA -0.734028 -12.7424 81.8682
CA 0.619896 4.57229 3.91384
CA -0.741924 -8.1634 48.5746
CA 13.7735 13.2814 58.3421
CA 15.5955 8.76265 61.2243
CA 14.9519 -2.90122 72.8535
CA -16.4837 -5.04722 76.8265
CA 3.70749 -3.72895 90.3084
CA -6.8934 5.41139 45.7193
CA 3.62299 5.19268 55.8232
CA -7.74498 -17.92 72.9914
CA 8.96696 13.1049 59.7305
CA -5.35001 -15.2279 54.6124
CA -1.86396 8.49455 53.6592
CA 2.11203 -19.9205 77.3753
CA -9.98562 -10.206 68.4189
CA -0.654515 -13.7193 54.3908
CA -8.46619 -13.7762 63.58
CA -14.5849 -2.02846 96.0498
CA -1.99358 21.3876 57.7177
CA -11.6353 -16.5118 59.077
CA 3.59975 4.17183 16.4127
CA -2.49334 10.5355 75.5643
CA -9.14172 -17.8344 74.3895
CA 5.87094 -10.6544 61.055
CA -3.58932 -10.4864 36.9046
CA -0.498222 21.2489 19.526
CA -0.54956 -6.25302 56.1558
CA -17.2222 -13.4836 51.5153
CA 6.98813 11.2288 53.8186
CA -0.181635 22.032 61.025
CA 5.04245 10.904 72.274
CA -5.13318 12.8014 11.3801
CA 15.1432 -12.179 50.8449
CA -22.0222 0.35611 79.2507
CA -23.8644 -5.09781 85.1317
CA -1.89667 -5.50736 28.6846
CA -8.60587 -8.58401 58.7018
CA -0.0014609 -16.5436 60.9234
CA 16.8117 -12.6366 52.9028
CA 0.744116 -6.92467 53.4306
CA 8.07176 -1.69484 68.558
CA -8.04293 5.85486 32.6844
CA -15.8128 -3.49902 80.0063
CA 6.11259 10.6855 57.0724
CA -10.4959 9.53347 57.072
CA -8.62527 3.36457 65.3956
CA 5.58073 -7.78989 56.3249
CA 0.516086 -6.63341 75.0459
CA -10.349 -16.3284 69.7614
CA -5.36063 -7.87706 66.2499
CA -10.9056 -4.83902 44.4584
CA -5.41561 -16.749 50.6815
CA -2.81715 12.8748 18.2397
CA -22.0961 -8.91102 43.518
CA 5.81982 -23.3484 79.4788
CA -9.78496 -15.3608 74.8573
CA 4.68061 0.415823 88.7032
CA -5.7937 1.72843 78.754
CA 15.6346 -5.01841 59.0777
CA 2.32173 -2.67465 86.5211
CA 3.67134 -17.0737 61.3312
CA 3.53339 2.64126 71.6971
CA -7.01289 -15.6552 60.4601
CA -18.6641 -18.3003 76.335
CA -11.7303 -13.055 42.7209
CA -19.3886 0.389658 65.1913
CA -6.34548 9.91126 58.0015
CA 4.84621 8.26273 18.4892
CA 12.3673 -13.2016 54.1763
CA -6.09144 -20.3832 46.0987
CA -4.04443 -7.95259 87.3327
CA 12.9412 3.63856 54.2969
CA -9.90942 17.166 64.4097
CA 13.1639 -9.17588 68.7569
CA -20.8323 -2.9347 67.7928
CA 14.9817 0.646382 56.2472
CA 0.184425 -17.069 71.4207
CA -6.64142 -10.5581 40.3374
CA -1.993 -7.38013 69.6434
CA -15.4879 -16.1375 77.3697
CA 13.0658 -4.83366 76.6
CA -8.64007 -16.2814 89.4605
CA 3.05792 22.1094 80.6805
CA 4.26072 25.7439 62.4119
CA -5.03193 -13.1592 96.5443
CA -20.1936 -4.91389 55.2443
CA -5.70709 -0.994888 52.6737
CA 0.985343 19.6485 76.2903
CA -22.7518 -7.7538 77.3077
CA -15.9142 -11.7031 87.6641
CA -17.1823 -11.5577 50.7757
CA 0.653478 -11.9585 38.5498
CA -10.8273 4.02092 82.7611
CA -13.48 -3.61976 75.8208
CA 11.4414 13.0559 53.3241
CA -0.441062 -16.2457 67.3195
CA 6.45519 12.5707 23.7871
CA 17.6835 -20.7351 87.8905
CA -2.33019 24.6038 17.5757
CA -17.2616 4.62231 66.3279
CA -8.61626 21.8017 62.6993
CA -9.58643 13.9388 13.7036
CA -7.7168 -10.2412 36.4975
CA -4.79795 4.63879 46.5997
CA 18.9446 -9.27391 60.2412
CA 16.8505 -6.39229 65.5614
CA -7.78395 27.1766 19.4928
CA 2.84735 -16.3398 57.4123
CA -6.57337 22.6071 17.5884
CA -16.3457 -17.6831 49.3346
CA 5.57242 -16.9474 86.4128
CA 3.79439 -26.8299 55.1891
CA -6.99183 -12.9018 95.9749
CA -23.6516 -12.0018 65.0172
CA -5.79133 11.7452 61.834
CA -23.2348 -0.0877466 77.8214
CA -17.4408 -13.8203 64.5422
CA -6.00736 23.031 59.4557
CA -4.27127 3.21028 50.9171
CA -17.5422 1.82352 52.3392
CA -4.92359 -15.8638 86.2804
CA -5.78907 25.0693 16.9372
CA -9.16323 -1.79774 41.4558
CA 4.30003 -25.6413 53.5267
CA -21.0666 -2.86503 53.6513
CA 7.43853 -5.50743 42.4957
CA -21.7 7.59549 64.3622
CA 2.62188 6.59842 18.5084
CA -14.2019 -9.72601 74.6128
CA -4.41211 -6.8334 85.6507
CA -3.58093 22.3522 15.7385
CA -0.0891083 -8.40646 74.6023
CA 0.193105 -13.3059 51.5354
CA 13.949 11.0548 53.8163
CA -0.89834 -6.33682 85.8108
CA 18.9843 3.3684 59.1927
CA 12.9418 -9.75894 67.0435
CA -19.8005 1.24329 79.5201
CA 3.17461 -9.27063 91.8795
CA -10.228 6.48587 57.3243
CA -18.0012 0.104876 53.2021
CA 4.8252 -14.7265 33.4377
CA -15.1002 -8.59729 81.8732
CA -9.77031 -0.20527 75.7701
CA -0.208064 1.70777 81.091
CA -21.5431 -4.80609 76.7211
CA -28.1938 -16.9695 53.1049
CA 4.17488 -13.0683 59.3917
CA -9.00018 -8.58149 49.8826
CA 2.2129 23.6016 56.5854
CA -24.6784 -14.1889 60.7436
CA 1.08257 14.2226 12.4596
CA -3.9398 8.80187 66.9561
CA 9.7682 -12.5226 94.7025
CA 9.73318 4.34357 53.9151
CA 14.0428 -16.9337 86.9705
CA -27.4911 -16.2072 62.6817
CA 7.57012 -13.5387 86.1739
CA -0.891804 -10.4724 56.5148
CA -5.41298 4.31732 65.559
CA 2.9387 19.7072 15.9032
CA -3.96195 -13.6582 61.1583
CA -24.6662 -4.98995 52.2762
CA 1.56119 -22.4229 40.7651
CA -3.7137 -9.53995 46.1204
CA 4.03758 0.481018 92.2228
CA -3.93356 10.4929 22.9051
CA 17.8714 0.461132 64.7816
CA 1.43655 -14.6463 38.7145
CA 1.58879 4.38806 68.5004
CA 8.65426 -15.5174 81.3473
CA -13.2869 -11.3891 60.9953
CA -18.6411 -13.1628 44.6558
CA 8.42487 -23.0208 86.1122
CA -25.9952 -3.98407 67.9676
CA -20.5864 -10.1929 66.3091
CA -16.944 -10.0074 90.973
CA -2.59911 15.9321 75.864
CA -1.52189 4.51872 85.9859
CA -25.5406 -2.78183 71.1037
CA -3.53091 21.8326 18.4217
CA -13.9703 -7.89088 60.8067
CA -16.1574 -9.70445 46.9629
CA -7.59183 -3.49781 77.8121
CA -22.0723 -8.2559 58.9711
CA -5.91049 -2.28967 37.7912
CA 2.04426 -1.1826 96.0295
CA -17.2713 -3.48741 91.1339
CA -10.9107 22.0208 61.9958
CA 16.3955 -9.88805 51.0792
CA 6.92806 -1.58936 72.6192
CA -9.24891 -11.1294 60.508
CA 2.30451 -1.55894 92.28
CA 6.45497 -13.8032 72.8121
CA -0.528329 1.92075 4.5852
CA 2.39433 1.12338 86.8446
CA -1.57264 -22.9778 52.5919
CA 0.703477 -7.13113 93.123
CA -19.5661 4.64835 76.0354
CA 3.52945 2.82359 3.28636
CA -11.5113 -0.872568 81.017
CA 3.13817 7.66444 71.1465
CA 2.40706 25.7759 60.3968
CA -6.37852 -13.2797 75.3657
CA -24.7892 -8.96292 66.1741
CA -22.4041 -7.1546 68.6237
CA 1.43744 16.1901 7.07732
CA -2.96186 -1.27914 84.009
CA 0.694634 4.3605 37.9969
CA 10.4603 -19.4617 73.832
CA 3.24182 1.05195 70.87
CA -1.0756 -17.7246 68.7095
CA 3.06026 1.87262 7.84767
CA -2.74805 -0.686453 78.7053
CA 5.99711 -15.0486 58.0572
CA -2.73309 -1.12203 48.4512
CA 14.0682 -9.48004 48.0485
CA -3.39017 10.2067 80.3294
CA 1.86481 -6.10859 51.6673
CA 9.94646 9.61947 57.6407
CA 0.39796 4.01062 71.8199
CA 6.16679 -16.4686 76.9959
CA 2.45633 0.749922 37.2869
CA -0.184324 -14.0184 69.2279
CA 1.89669 -19.1092 48.9743
CA -1.67133 -10.2193 52.463
CA 14.0251 -13.7237 64.2673
CA -16.4724 -3.88439 53.0296
CA -1.58399 9.87365 77.1627
CA -5.88849 19.6308 62.6449
CA -14.9113 -11.5143 41.8584
CA -8.01349 -8.30474 94.3403
CA 12.7981 11.4064 60.013
CA 5.8186 -22.2178 41.3394
CA -12.3856 8.90633 53.0749
CA -15.4343 0.0725827 52.367
CA 9.52385 -22.6857 81.9411
CA 4.66795 -1.71943 96.9581
CA -5.8947 10.565 27.0484
CA -29.189 -2.41442 68.0308
CA 3.21501 -12.9564 54.747
CA 1.07899 -19.3657 39.4064
CA -21.0164 -15.2175 64.4574
CA -1.5838 14.6713 18.738
CA -15.2786 1.76794 50.2791
CA 1.52326 10.0102 10.2229
CA 0.171369 5.57323 53.4204
CA -16.3013 5.53051 61.1266
CA 20.1805 -5.49035 57.973
CA 3.91539 -17.5172 76.3291
CA -16.4402 2.0221 62.9088
CA 13.1067 8.03679 53.6005
CA 7.48808 -7.89907 56.9681
CA -27.6383 -12.2351 75.0979
CA -6.91436 9.83557 8.85122
CA -17.6183 5.29133 63.6671
CA -9.77338 11.7036 53.1576
CA -10.7308 -9.07434 45.1719
CA 5.53183 -24.256 89.6556
CA -5.6274 -17.9134 48.3474
CA 3.87921 -14.926 37.7635
CA -1.22146 -10.0918 95.8259
CA -8.70888 15.638 20.8666
CA 5.99656 -18.7004 75.8621
CA 7.22737 11.2735 20.0114
CA -21.0133 2.52544 79.0364
CA -5.88784 -15.1878 58.1473
CA -11.3506 17.3505 59.2459
CA 8.91368 -9.65536 43.2867
CA 10.5397 -24.4018 86.5146
CA -3.44296 -2.2944 58.6297
CA -2.48159 -6.15435 31.955
CA -21.4904 -6.8325 82.2122
CA 5.79563 15.1135 15.6306
CA -1.53351 -6.72863 62.3601
CA 6.28953 -12.3234 69.5539
CA -3.16769 -18.1417 75.5836
CA -5.95069 6.04349 25.8749
CA -21.4981 3.12632 84.5915
CA 6.70906 11.8519 12.379
CA -2.87943 -2.68466 7.20034
CA -8.05413 7.12341 55.228
CA -2.10385 2.83849 5.76785
CA 0.691806 5.42745 8.41147
CA -1.08283 -12.9517 70.6561
CA -7.97878 29.5987 20.0174
CA -8.78086 -12.3813 66.4714
CA -8.15712 -6.1351 53.683
CA 6.79262 -7.66445 66.3192
CA -20.9532 5.64664 65.0373
CA -6.35725 10.0764 17.7922
CA -1.21692 1.73236 79.0469
CA -11.9331 14.8415 55.8362
CA -5.75254 5.14866 67.3253
CA -17.973 -11.7616 86.4873
CA 8.09872 -5.30039 49.1679
CA -8.70128 24.1444 16.883
CA 1.91915 3.5317 56.2794
CA -3.67918 5.74734 55.0034
CA -0.702262 6.83994 15.9034
CA 1.34998 -27.2976 56.7459
CA -11.3335 -13.6105 55.3471
CA 18.2382 -4.27971 64.3928
CA 1.14606 -24.1298 41.7464
CA 4.57473 -9.29931 61.1134
CA 2.06546 -16.4596 53.0581
CA -17.5957 -9.58922 45.5341
CA -2.68487 7.83281 72.4293
CA -4.47725 -8.67789 38.7259
CA -6.4464 1.19413 36.9441
CA 4.13515 -2.82805 86.1964
CA -7.42353 3.03941 39.5568
CA -3.23344 12.5552 24.5247
CA -14.3097 20.9299 16.8333
CA -22.5145 -1.95608 75.7287
CA 14.5113 -6.29425 59.6777
CA -3.13022 4.50749 69.4395
CA -6.58903 -2.04872 32.0381
CA 7.12719 13.9199 55.6426
CA -22.4598 -17.9718 65.1852
CA 5.896 -15.8529 73.3716
CA 8.77019 -11.3136 50.3391
CA 12.7934 -24.7314 83.3521
CA 1.92563 8.89022 19.8782
CA -9.99724 16.6867 56.792
CA 1.2769 13.2686 17.3573
CA -13.2952 3.53645 56.0571
CA 12.661 -10.2977 62.1325
CA -2.04708 7.41082 70.2531
CA -1.37344 -11.351 46.5169
CA 7.0212 8.36303 20.7896
CA 4.80151 -15.639 48.6386
CA -11.0853 16.4647 66.5515
CA -13.1964 -6.16878 76.674
CA -15.011 -16.5034 64.5458
CA -8.53097 -21.6232 49.9615
CA 15.4114 -6.20211 56.1959
CA -0.879765 6.92282 80.8682
CA -5.94893 1.51853 75.5023
CA 14.7233 -24.2351 86.5969
CA 10.2073 -3.66932 70.2057
CA 14.5801 -16.8142 90.2112
CA 11.3288 -2.95464 45.147
CA -11.9804 -14.1405 75.068
CA 2.93382 -23.0643 75.29
CA -14.2147 -7.03056 90.2716
CA 1.49912 -14.6967 51.0883
CA 5.79027 -25.6804 92.6461
CA 0.759551 -21.0012 53.0352
CA 1.01044 -0.687662 52.1687
CA -0.955643 3.19789 77.9306
CA -2.5467 -8.65101 65.1222
CA -0.927032 -19.8032 85.3726
CA -7.95864 27.1391 17.68
CA -3.13376 -20.0285 61.8013
CA -11.3882 -9.54652 84.1955
CA -5.36393 1.89661 28.4034
CA -0.608178 19.7029 21.3228
CA 13.1225 -15.8196 82.7505
CA -27.1273 -2.05155 50.9972
CA -8.68753 19.7363 62.3221
CA -15.1779 -11.9301 90.3674
CA -8.38094 14.3993 60.0548
CA -2.68614 -15.5039 45.354
CA -4.29786 12.7865 66.7399
CA -15.2283 -2.65573 73.8313
CA -6.88448 -25.136 44.8415
CA -2.75364 -15.0443 61.2306
CA 6.27848 -20.9257 76.3667
CA 15.5785 -17.189 84.2511
CA -1.48271 -25.3422 61.7403
CA -5.47961 -6.29702 83.1585
CA -6.06195 6.55866 41.4244
CA 4.03229 -12.2754 83.0814
CA 2.30322 -24.3245 54.2779
CA -1.00815 -15.7926 81.9537
CA -7.6536 -12.2869 36.2829
CA 17.0731 2.77886 54.5837
CA 2.78715 -3.97938 61.8135
CA -1.16529 15.0138 68.3102
CA 11.1156 -15.8574 75.5288
CA -16.4896 4.21434 57.1904
CA -11.6371 -16.2698 65.0908
CA -1.18437 -13.6926 92.7656
CA 11.4404 4.08461 63.9404
CA 0.195985 -2.29144 38.1393
CA -6.77798 -1.2156 79.6208
CA 0.578832 -6.97252 76.9444
CA 9.56659 -8.65543 46.0997
CA 13.7425 -7.67869 55.8344
CA -2.97993 -0.0247752 4.18462
CA -7.93351 11.7726 81.6724
CA -14.5376 4.68693 47.0002
CA 4.77287 -9.25329 94.6431
CA -9.25598 6.08897 47.4121
CA -15.0302 -3.0628 89.9136
CA -6.19177 2.76558 66.188
CA -12.1876 4.22605 42.2777
CA 12.169 2.28517 62.3137
CA -0.129029 -9.37766 43.7399
CA -1.29096 -6.5357 74.8131
CA 14.0197 -19.487 87.4513
CA -22.9285 -8.51071 46.0072
CA -3.6897 -24.239 61.6424
CA -2.26183 -1.48143 56.6897
CA 4.90264 -11.5486 77.468
CA 0.0774416 5.77825 71.9969
CA -2.62342 -15.9869 54.9922
CA -15.2414 -14.6098 66.314
CA 1.2391 -11.4399 46.4323
CA -1.31581 -1.30417 39.5434
CA 0.773276 18.7719 59.3008
CA -24.3678 -3.0317 62.1865
CA -25.4276 -8.86395 41.628
CA -10.1493 3.48424 80.7424
CA -17.617 7.87093 63.5804
CA -22.2913 -1.039 57.755
CA 1.91308 20.2863 79.7268
CA -0.934546 -4.45171 46.7115
