489

CA -25.1503 -10.5238 75.3174
CA 7.51942 -12.3285 55.1501
CA -29.5869 -2.03759 69.7462
CA -20.6993 -1.74823 75.5753
CA -20.791 2.24979 80.9385
CA -1.09642 -9.59589 95.4979
CA -11.948 -1.80627 54.0098
CA -11.2548 17.4898 61.4885
CA 3.53825 9.25751 55.7328
CA -28.4069 -6.72613 68.5816
CA 2.93767 16.1506 77.1739
CA -18.2847 -8.10386 72.7031
CA -20.3857 -4.22381 57.5555
CA -5.79937 27.8009 17.2696
CA -18.8587 -10.8022 83.5957
CA 16.3281 1.36876 53.3415
CA 8.24791 2.2851 62.8871
CA -1.53531 -10.5953 40.5775
CA 13.3483 -2.9557 47.1786
CA -7.45317 -12.6905 87.3765
CA -12.6141 -15.0678 53.0047
CA -8.16435 -9.91836 70.8282
CA -14.3164 -18.0595 68.7465
CA 15.4035 -6.55457 68.005
CA -18.7125 -8.8378 80.8791
CA -10.2591 14.0002 17.6332
CA 3.1621 -13.3234 52.2738
CA -1.6046 -16.0318 43.5837
CA -3.31422 -24.1168 52.5514
CA 11.6352 -21.5116 74.5053
CA -4.48708 -24.3962 65.7257
CA -3.92061 -17.181 70.6489
CA -1.40333 -27.6693 51.6664
CA -8.09096 -1.22769 39.2405
CA -12.991 -2.89069 87.5675
CA -6.36495 -12.1054 98.5563
CA 6.73449 4.82074 56.2214
CA -6.94707 -7.70141 54.6655
CA -24.9124 -0.806177 62.3224
CA -21.7129 -11.0017 69.4775
CA -3.00136 13.7547 72.6318
CA -4.69418 1.73558 48.2736
CA 0.668442 -25.9865 48.7986
CA 0.500543 14.0289 77.8774
CA 14.98 -8.42183 53.2424
CA -4.47322 -10.722 39.6478
CA 10.0194 9.48849 53.1183
CA -4.9454 -2.6244 28.828
CA 1.69493 -7.17624 96.4706
CA -14.616 -26.969 64.5393
CA 4.44093 9.50995 71.112
CA -2.46992 -0.492175 93.385
CA -3.89684 -1.04213 63.7258
CA -7.52066 -6.20105 40.012
CA -8.89107 -17.9822 78.8835
CA -0.474179 -22.082 74.9318
CA -1.16207 8.09027 75.1905
CA -5.52173 30.9244 23.6784
CA -24.6904 -5.48596 65.3775
CA -11.1248 19.124 18.3537
CA -25.7912 -14.9785 56.7735
CA 3.00587 -27.943 49.5845
CA 14.4219 2.98252 60.0738
CA -1.49251 -3.31836 54.6017
CA -9.83923 -13.5585 51.0315
CA 10.2419 -22.6617 77.4183
CA -23.5281 -12.1099 60.7751
CA -21.4953 0.846801 64.4027
CA -20.7245 -11.0762 72.2795
CA -3.06674 7.36335 5.19538
CA 1.45817 -3.15867 96.9835
CA -21.8952 -13.3073 61.4918
CA -13.7691 -4.84325 89.075
CA 15.5955 8.76265 61.2243
CA 14.9519 -2.90122 72.8535
CA -19.0005 4.79612 58.2497
CA 1.42871 -5.94109 45.6495
CA -6.8934 5.41139 45.7193
CA 3.62299 5.19268 55.8232
CA -7.74498 -17.92 72.9914
CA -4.99716 -25.1403 56.4943
CA -14.7249 -18.3045 77.2396
CA -1.86396 8.49455 53.6592
CA 18.8382 -6.76773 53.4106
CA -9.98562 -10.206 68.4189
CA -3.47134 -22.0057 53.5981
CA 4.43025 -6.40337 91.5255
CA -23.1394 3.94407 83.5103
CA -8.35664 2.17357 29.9249
CA -0.796472 -27.3779 57.5664
CA -1.01742 7.13577 84.6784
CA -3.64824 -8.44866 81.8421
CA 4.94815 -5.88597 65.0703
CA -5.98474 -13.3687 65.564
CA -3.58932 -10.4864 36.9046
CA -0.498222 21.2489 19.526
CA -0.54956 -6.25302 56.1558
CA -17.2222 -13.4836 51.5153
CA -8.81598 11.2337 55.1993
CA -10.129 -23.1813 56.6852
CA -0.956859 0.0758522 83.6002
CA -5.13318 12.8014 11.3801
CA -4.90468 15.3158 10.5071
CA 12.835 15.7242 59.2377
CA -7.56619 -22.338 60.5489
CA 2.00722 -9.87232 80.8888
CA 3.68269 -9.56019 60.7378
CA -0.0014609 -16.5436 60.9234
CA -13.4842 10.1669 57.1933
CA 1.38547 -0.385397 90.0884
CA -4.46997 -10.3538 94.423
CA -8.04293 5.85486 32.6844
CA -15.8128 -3.49902 80.0063
CA 6.11259 10.6855 57.0724
CA -19.4815 -8.99427 74.6558
CA 12.9721 7.01467 57.8772
CA -6.58047 2.55797 42.8502
CA -0.0986008 3.20593 83.2934
CA -2.43941 4.48116 3.80567
CA -5.36063 -7.87706 66.2499
CA -10.9056 -4.83902 44.4584
CA -8.17674 8.85738 50.8551
CA -2.81715 12.8748 18.2397
CA -22.0961 -8.91102 43.518
CA 5.81982 -23.3484 79.4788
CA -19.0245 -0.855841 57.6574
CA 4.68061 0.415823 88.7032
CA -5.7937 1.72843 78.754
CA 15.6346 -5.01841 59.0777
CA 2.32173 -2.67465 86.5211
CA -3.5385 -12.4363 94.9726
CA 2.28996 -17.9475 68.5378
CA -7.01289 -15.6552 60.4601
CA -20.8743 -11.1171 60.2192
CA -11.7303 -13.055 42.7209
CA -15.7569 -20.0108 62.4635
CA -6.34548 9.91126 58.0015
CA 4.84621 8.26273 18.4892
CA -23.1424 -8.00673 61.3586
CA -6.09144 -20.3832 46.0987
CA -4.04443 -7.95259 87.3327
CA -6.61458 -1.59951 26.9795
CA 2.13002 -21.4747 64.8394
CA -4.09471 -4.0673 89.4208
CA 0.275168 -21.1169 61.8741
CA -13.6453 -16.2844 51.1712
CA 0.184425 -17.069 71.4207
CA -1.81871 -3.78398 88.9619
CA 13.3378 0.374283 52.08
CA 10.8441 5.99222 56.9483
CA 13.0658 -4.83366 76.6
CA -8.64007 -16.2814 89.4605
CA -8.83283 1.53128 44.4223
CA -4.27911 -8.5853 85.0871
CA -5.03193 -13.1592 96.5443
CA 13.3078 -3.53934 67.9851
CA -6.17815 -5.34613 54.5863
CA 0.985343 19.6485 76.2903
CA 0.259863 -6.04705 64.4485
CA -15.9142 -11.7031 87.6641
CA -17.1823 -11.5577 50.7757
CA 0.653478 -11.9585 38.5498
CA 5.69676 -0.121917 65.6195
CA -17.8594 -14.8004 76.6757
CA -18.3854 -0.709224 55.4071
CA -0.441062 -16.2457 67.3195
CA -21.7571 -7.00531 59.4214
CA 17.6835 -20.7351 87.8905
CA -2.33019 24.6038 17.5757
CA 11.1062 -4.48925 61.3211
CA -1.00548 -2.21196 63.9843
CA -9.58643 13.9388 13.7036
CA 10.6818 1.6801 55.3683
CA -5.89273 -7.75159 34.8757
CA -7.09716 4.41944 28.4717
CA -4.50629 13.8587 67.4649
CA -6.17282 -17.043 80.6605
CA 2.84735 -16.3398 57.4123
CA -6.57337 22.6071 17.5884
CA -16.3457 -17.6831 49.3346
CA 5.57242 -16.9474 86.4128
CA -10.4219 -18.1387 83.6554
CA -6.99183 -12.9018 95.9749
CA 5.16706 -16.618 76.7101
CA -5.79133 11.7452 61.834
CA 1.503 -12.1473 69.6163
CA -0.00564222 0.767732 62.2494
CA -25.5462 -2.83512 59.0416
CA 0.707944 10.6492 20.2215
CA 2.66151 0.466496 4.37608
CA -4.92359 -15.8638 86.2804
CA -18.2412 -2.0323 89.5336
CA -15.7307 -17.3233 60.1265
CA 9.35378 -23.7222 79.7773
CA -21.0666 -2.86503 53.6513
CA 7.43853 -5.50743 42.4957
CA 3.56088 4.46985 81.6934
CA 2.62188 6.59842 18.5084
CA -24.0439 0.518495 65.9805
CA -5.28596 -10.2141 52.2739
CA -3.58093 22.3522 15.7385
CA -0.0891083 -8.40646 74.6023
CA -2.80164 -19.9825 51.959
CA -2.42243 -0.51097 52.5708
CA -5.40973 7.05768 85.4506
CA -7.02384 4.41879 6.4753
CA -3.07521 -10.6711 84.0875
CA -19.8005 1.24329 79.5201
CA 17.6944 -2.41642 63.6942
CA -11.1503 -8.7517 52.389
CA -18.0012 0.104876 53.2021
CA -16.49 4.02664 52.907
CA 13.1479 -6.375 43.3166
CA -10.7711 -5.23951 39.8013
CA -29.8048 -1.05745 64.5065
CA -8.55828 16.328 63.4767
CA -2.16279 -18.8362 58.2631
CA -22.7308 -6.09085 64.3774
CA -2.69027 29.4235 15.9909
CA -1.63666 24.3645 59.1331
CA -24.6784 -14.1889 60.7436
CA 1.08257 14.2226 12.4596
CA 10.618 -25.2096 71.9852
CA -8.47894 -22.5662 57.156
CA -3.18137 -4.33509 63.7147
CA 7.69458 1.35111 67.2995
CA -27.4911 -16.2072 62.6817
CA -26.5164 -0.390547 71.476
CA -28.1056 -3.26738 49.6699
CA -2.39203 0.84157 71.413
CA 2.9387 19.7072 15.9032
CA -3.96195 -13.6582 61.1583
CA -24.6662 -4.98995 52.2762
CA 1.56119 -22.4229 40.7651
CA -3.7137 -9.53995 46.1204
CA -1.14049 11.0258 80.8319
CA -3.93356 10.4929 22.9051
CA 17.8714 0.461132 64.7816
CA -3.42935 12.6509 77.1873
CA 1.58879 4.38806 68.5004
CA 1.7123 3.89558 59.4234
CA -13.2869 -11.3891 60.9953
CA 1.80421 -25.0671 77.0306
CA 3.00445 8.27282 22.5699
CA -0.560325 -4.08001 72.3605
CA -13.5723 -16.4804 75.845
CA -16.944 -10.0074 90.973
CA -2.59911 15.9321 75.864
CA -1.52189 4.51872 85.9859
CA -3.83508 -17.8795 45.357
CA -3.53091 21.8326 18.4217
CA 15.4681 -9.47515 63.6103
CA -16.1574 -9.70445 46.9629
CA -7.59183 -3.49781 77.8121
CA -8.49324 16.7461 60.2995
CA -5.91049 -2.28967 37.7912
CA -25.2621 -7.8908 79.6558
CA -8.00459 -10.4662 89.3841
CA 11.0388 -17.5361 84.9652
CA -3.71843 0.68046 38.7216
CA 6.92806 -1.58936 72.6192
CA -13.2503 -15.669 61.2602
CA -8.99914 -1.27221 30.7434
CA -19.0207 -12.0594 71.6009
CA -0.528329 1.92075 4.5852
CA -4.37589 -13.3557 45.5554
CA -1.68288 -8.46758 45.941
CA 1.75309 10.5796 16.9744
CA -19.5661 4.64835 76.0354
CA 3.52945 2.82359 3.28636
CA -3.99555 15.6216 71.834
CA -0.301646 -19.8887 38.3656
CA 3.30471 4.67674 69.2303
CA -24.0761 -0.89264 76.958
CA -9.83217 -9.77544 95.8887
CA -15.3967 -9.44477 44.2328
CA 1.43744 16.1901 7.07732
CA 3.35332 -0.262243 94.9663
CA 0.448953 -13.1788 45.4833
CA 8.03255 6.49286 22.4541
CA 3.24182 1.05195 70.87
CA 3.42567 -0.684869 73.5218
CA -8.55695 8.33649 57.1914
CA -15.0597 9.79908 64.2271
CA -5.68261 -3.8221 59.722
CA 1.22643 -2.45791 94.0242
CA -6.24568 18.304 55.7544
CA 1.53641 -8.56799 68.3669
CA -6.49968 -5.83883 86.2514
CA -14.5154 4.31333 41.925
CA 0.39796 4.01062 71.8199
CA -25.1308 -2.05758 67.5164
CA 2.45633 0.749922 37.2869
CA -7.02499 -9.78276 40.2902
CA 1.89669 -19.1092 48.9743
CA -1.67133 -10.2193 52.463
CA 14.0251 -13.7237 64.2673
CA -16.4724 -3.88439 53.0296
CA -1.58399 9.87365 77.1627
CA -5.88849 19.6308 62.6449
CA -14.9113 -11.5143 41.8584
CA -8.01349 -8.30474 94.3403
CA -10.4063 -14.5396 53.5622
CA 2.27726 -25.7915 53.2019
CA -12.3856 8.90633 53.0749
CA -11.1147 -7.31377 55.0221
CA 9.52385 -22.6857 81.9411
CA 4.66795 -1.71943 96.9581
CA -0.93162 20.0984 61.7476
CA -3.3383 -28.3643 65.5404
CA -7.53569 -1.65043 60.7215
CA -18.3017 -6.45208 75.3164
CA 0.757885 21.6261 18.0493
CA -1.88013 1.98284 39.6092
CA 2.11094 3.27664 86.4717
CA 1.52326 10.0102 10.2229
CA 0.171369 5.57323 53.4204
CA 17.8722 -3.71922 49.1179
CA 12.6657 -8.032 67.937
CA -8.34089 -22.0791 69.3703
CA -16.4402 2.0221 62.9088
CA 13.1067 8.03679 53.6005
CA -4.34249 -15.9057 79.8431
CA -27.6383 -12.2351 75.0979
CA -6.91436 9.83557 8.85122
CA -17.6183 5.29133 63.6671
CA -9.77338 11.7036 53.1576
CA -10.7308 -9.07434 45.1719
CA 5.53183 -24.256 89.6556
CA -5.6274 -17.9134 48.3474
CA -9.42341 -10.5136 43.0004
CA 13.0424 3.84504 57.8473
CA -22.9942 -6.96945 80.2155
CA 5.99656 -18.7004 75.8621
CA -15.1566 6.95663 60.4031
CA -21.0133 2.52544 79.0364
CA -8.6925 16.5023 65.3434
CA -30.571 -11.0695 69.0974
CA 8.91368 -9.65536 43.2867
CA -18.8648 -7.13061 78.3737
CA -10.564 -25.0926 66.4791
CA -2.48159 -6.15435 31.955
CA 2.59406 10.6104 19.755
CA 5.79563 15.1135 15.6306
CA -4.15982 -1.49334 55.0897
CA 6.28953 -12.3234 69.5539
CA 2.61174 -23.7916 48.7059
CA -5.95069 6.04349 25.8749
CA -21.4981 3.12632 84.5915
CA -4.00871 -9.18103 53.4064
CA -2.87943 -2.68466 7.20034
CA -20.4083 -1.58165 52.4351
CA -2.10385 2.83849 5.76785
CA 0.691806 5.42745 8.41147
CA -1.08283 -12.9517 70.6561
CA -7.97878 29.5987 20.0174
CA -21.559 -5.98184 70.7193
CA -1.20375 -11.6563 76.8233
CA 7.37173 -10.0581 42.3269
CA -20.9532 5.64664 65.0373
CA -0.571475 -12.5223 31.595
CA -5.65142 1.20446 29.4217
CA -11.9331 14.8415 55.8362
CA 3.75656 -9.10193 73.7785
CA -16.0361 -6.46531 84.7344
CA 8.09872 -5.30039 49.1679
CA -8.70128 24.1444 16.883
CA 1.91915 3.5317 56.2794
CA -3.67918 5.74734 55.0034
CA 1.14913 -30.1778 47.5319
CA -11.6237 15.547 59.0059
CA -7.14775 -16.6495 76.6402
CA -9.53232 2.89914 83.456
CA -15.8778 5.81636 56.8802
CA 5.33288 -12.6338 50.1922
CA 2.06546 -16.4596 53.0581
CA -17.5957 -9.58922 45.5341
CA 1.72215 -21.2078 75.0378
CA -5.87597 6.23121 5.90337
CA -13.0843 -17.7251 59.7402
CA 4.13515 -2.82805 86.1964
CA -1.89093 -12.9705 45.1543
CA -3.64292 10.8102 77.6976
CA -14.3097 20.9299 16.8333
CA -22.5145 -1.95608 75.7287
CA -13.9191 1.76889 39.7553
CA -3.13022 4.50749 69.4395
CA -6.58903 -2.04872 32.0381
CA -12.472 -18.5312 68.3221
CA -21.7585 -2.20269 63.1623
CA -9.41794 -20.0437 70.6622
CA 8.77019 -11.3136 50.3391
CA 12.7934 -24.7314 83.3521
CA 1.92563 8.89022 19.8782
CA 10.1693 -5.55397 45.6705
CA 1.2769 13.2686 17.3573
CA -13.2952 3.53645 56.0571
CA 12.661 -10.2977 62.1325
CA -2.04708 7.41082 70.2531
CA -3.27911 -19.8668 72.7054
CA -0.206261 -7.32962 66.4245
CA 4.80151 -15.639 48.6386
CA -4.09499 3.08015 34.6053
CA 14.2711 -14.8322 91.8096
CA -15.011 -16.5034 64.5458
CA -4.04074 -13.217 41.5877
CA -5.18125 18.6295 57.4663
CA 5.73096 -11.8631 47.6575
CA -5.94893 1.51853 75.5023
CA 14.7233 -24.2351 86.5969
CA 10.2073 -3.66932 70.2057
CA 14.5801 -16.8142 90.2112
CA 15.0221 12.5908 61.1201
CA -11.9804 -14.1405 75.068
CA 2.87793 -0.580465 91.1736
CA 2.58453 13.7831 77.742
CA -23.8398 -6.55176 78.5164
CA 2.29798 -14.6305 32.5252
CA 8.38496 -14.418 73.8043
CA -10.2881 8.11152 58.4437
CA -0.955643 3.19789 77.9306
CA 8.16896 15.5678 56.2036
CA -0.927032 -19.8032 85.3726
CA -7.95864 27.1391 17.68
CA -9.66475 7.10294 53.1282
CA 15.0774 -18.9805 84.5981
CA -14.8766 -21.0414 76.4159
CA -7.79791 -7.22742 43.4186
CA 2.31274 -19.9809 61.2657
CA -27.1273 -2.05155 50.9972
CA -8.68753 19.7363 62.3221
CA -7.09102 16.4101 56.3978
CA 11.8454 -12.9112 64.8547
CA -2.68614 -15.5039 45.354
CA -17.9954 1.11111 77.7698
CA -15.2283 -2.65573 73.8313
CA -6.12272 -1.17018 29.4673
CA -2.75364 -15.0443 61.2306
CA 2.49262 -7.5591 76.7647
CA -5.65066 -13.5514 78.4752
CA -1.48271 -25.3422 61.7403
CA -5.47961 -6.29702 83.1585
CA 7.59249 -23.279 73.8272
CA -7.1493 -23.0718 58.6777
CA 2.30322 -24.3245 54.2779
CA -1.00815 -15.7926 81.9537
CA -21.2014 -6.89836 53.649
CA 17.0731 2.77886 54.5837
CA 0.507167 -10.4589 36.7102
CA -17.163 -12.6516 67.0229
CA 11.1156 -15.8574 75.5288
CA -0.763643 5.43231 67.4121
CA 2.2494 -17.2442 36.7176
CA -1.18437 -13.6926 92.7656
CA 11.4404 4.08461 63.9404
CA -7.88119 6.97185 49.6779
CA -14.0998 8.22818 61.3165
CA 0.578832 -6.97252 76.9444
CA -6.05249 29.4715 18.4875
CA 13.7425 -7.67869 55.8344
CA 3.07241 -9.69445 63.7954
CA 2.53028 15.7966 20.5046
CA -2.96712 -2.2859 69.5269
CA -3.86967 -19.8416 49.325
CA -4.67637 30.2216 15.5677
CA -15.0302 -3.0628 89.9136
CA 10.3435 -21.7045 80.347
CA -12.1876 4.22605 42.2777
CA -10.9355 -12.1645 70.0625
CA 0.597231 -4.8036 67.9849
CA -12.1671 -20.5156 60.9378
CA 7.27503 -10.0245 44.9925
CA -21.8398 3.71159 74.6933
CA -3.6897 -24.239 61.6424
CA 18.0456 -7.78641 57.8476
CA -24.3576 1.89426 82.1925
CA -2.32877 -10.9995 56.7533
CA -9.49933 -1.98416 75.7065
CA 0.931497 -24.0219 88.7702
CA 1.2391 -11.4399 46.4323
CA -1.31581 -1.30417 39.5434
CA -23.4813 -13.3649 41.4575
CA -24.3678 -3.0317 62.1865
CA -6.97811 31.8172 19.3331
CA -10.1493 3.48424 80.7424
CA 0.402876 9.45239 77.974
CA -6.03007 -9.08154 93.5647
CA -25.6256 -5.66696 70.6609
CA -0.934546 -4.45171 46.7115
