489

CA -4.63361 10.0097 56.4769
CA 7.51942 -12.3285 55.1501
CA 0.300477 -6.84506 35.178
CA 3.93243 -11.7136 45.8861
CA -3.91738 -23.221 47.3547
CA -1.09642 -9.59589 95.4979
CA 6.10767 -7.59169 44.1588
CA 0.624853 -29.3576 52.7664
CA 3.53825 9.25751 55.7328
CA -6.26174 8.97635 6.19805
CA 2.93767 16.1506 77.1739
CA -18.2847 -8.10386 72.7031
CA -20.3857 -4.22381 57.5555
CA -5.79937 27.8009 17.2696
CA -26.0186 5.45444 75.516
CA 16.3281 1.36876 53.3415
CA -3.9067 -11.4642 52.6377
CA -1.53531 -10.5953 40.5775
CA 13.3483 -2.9557 47.1786
CA 18.7491 -2.02141 44.2058
CA -12.6141 -15.0678 53.0047
CA -8.16435 -9.91836 70.8282
CA -3.96028 -12.4981 64.1136
CA -24.472 -17.2493 67.4523
CA -18.7125 -8.8378 80.8791
CA -10.2591 14.0002 17.6332
CA 3.1621 -13.3234 52.2738
CA -1.6046 -16.0318 43.5837
CA -7.45767 -16.3816 88.0501
CA -14.8409 -17.5923 48.5371
CA -4.48708 -24.3962 65.7257
CA -3.92061 -17.181 70.6489
CA -6.18172 -23.1 70.8291
CA 8.66949 -11.4913 44.2601
CA -10.9234 -19.0089 57.9114
CA -6.36495 -12.1054 98.5563
CA -23.9903 -18.5955 64.6609
CA -6.94707 -7.70141 54.6655
CA -24.9124 -0.806177 62.3224
CA -21.7129 -11.0017 69.4775
CA -3.00136 13.7547 72.6318
CA -4.69418 1.73558 48.2736
CA -6.7528 6.9679 41.1773
CA 0.343118 -27.2078 53.6182
CA -4.68329 -16.9719 39.4954
CA -19.8065 -12.9574 60.3892
CA 10.0194 9.48849 53.1183
CA -7.19861 -23.9494 45.7182
CA 12.2205 -14.895 85.2545
CA 12.5548 -1.06344 44.5184
CA -0.0246681 8.24389 5.05958
CA 16.4872 -24.7293 84.4611
CA -10.4643 -27.4115 59.2837
CA -3.43852 -13.2925 42.2587
CA -8.89107 -17.9822 78.8835
CA -6.48221 5.5565 9.94327
CA -6.57139 -22.8422 56.8998
CA -5.52173 30.9244 23.6784
CA -0.678999 2.11758 37.4191
CA -11.1248 19.124 18.3537
CA 0.321437 -19.6802 77.2948
CA -21.1279 -4.84119 90.2171
CA -5.50496 -10.0197 73.8846
CA -5.11378 -8.26552 32.8013
CA -9.83923 -13.5585 51.0315
CA -19.138 -9.42687 63.9709
CA -23.5281 -12.1099 60.7751
CA -21.4953 0.846801 64.4027
CA 2.89425 0.528321 79.4193
CA -3.06674 7.36335 5.19538
CA 1.45817 -3.15867 96.9835
CA -21.8952 -13.3073 61.4918
CA -13.7691 -4.84325 89.075
CA 15.5955 8.76265 61.2243
CA -0.125983 -10.1746 49.7894
CA -19.0005 4.79612 58.2497
CA 1.42871 -5.94109 45.6495
CA -6.8934 5.41139 45.7193
CA -2.22713 25.9211 57.0931
CA 13.9294 -6.06567 53.288
CA -4.09184 6.80163 85.3821
CA -4.09718 -18.2782 38.2887
CA 19.8382 0.00412111 47.374
CA 4.27195 -6.90026 74.3987
CA -10.1274 -10.1562 76.3328
CA -3.47134 -22.0057 53.5981
CA -17.5122 -10.717 48.7071
CA -26.8776 -16.7049 58.794
CA -8.35664 2.17357 29.9249
CA -0.934079 5.56031 54.9107
CA 5.75305 -5.41154 56.5581
CA -3.64824 -8.44866 81.8421
CA 18.2625 -24.7484 89.3188
CA -5.98474 -13.3687 65.564
CA 10.7889 3.40177 57.0343
CA -0.498222 21.2489 19.526
CA -0.54956 -6.25302 56.1558
CA 0.707917 -16.3721 59.1014
CA -19.8799 -6.02261 77.2978
CA -6.52284 -17.0027 78.6692
CA -0.956859 0.0758522 83.6002
CA -5.13318 12.8014 11.3801
CA -4.90468 15.3158 10.5071
CA 0.881948 19.8137 74.2765
CA 0.393672 -8.08926 97.4863
CA 14.2166 -6.09701 51.3454
CA 3.68269 -9.56019 60.7378
CA -5.59135 10.2765 4.93942
CA -1.60489 -1.61074 59.5624
CA 5.45222 -10.1763 58.2567
CA 13.4612 -10.2581 70.4174
CA 15.5562 0.598941 43.1129
CA -16.0336 -22.0562 61.5142
CA 1.16828 -18.0747 87.5049
CA -19.4815 -8.99427 74.6558
CA 12.9721 7.01467 57.8772
CA -1.95349 -4.68067 68.7331
CA -0.0986008 3.20593 83.2934
CA -2.43941 4.48116 3.80567
CA -16.5594 0.613922 56.7482
CA 0.650631 -20.7218 55.9796
CA -8.17674 8.85738 50.8551
CA -2.81715 12.8748 18.2397
CA -22.0961 -8.91102 43.518
CA 10.7632 5.72138 60.3329
CA 0.463729 -11.0378 59.8941
CA 1.93318 5.63831 83.506
CA -5.7937 1.72843 78.754
CA -9.64023 -2.08939 42.7552
CA -18.2033 -0.0600586 79.7123
CA -22.5561 -0.205159 69.2611
CA -5.67897 0.829587 70.8344
CA -7.01289 -15.6552 60.4601
CA -16.8076 -13.0477 89.2018
CA -11.7303 -13.055 42.7209
CA -5.90469 -9.07722 61.3277
CA -9.0175 -11.4149 71.6893
CA -1.55029 25.1211 19.6819
CA -5.73309 -22.4799 48.0464
CA -6.09144 -20.3832 46.0987
CA -9.37459 -2.35569 40.9354
CA 9.39691 -5.47799 73.5702
CA 2.13002 -21.4747 64.8394
CA -4.09471 -4.0673 89.4208
CA 0.275168 -21.1169 61.8741
CA -13.6453 -16.2844 51.1712
CA 0.184425 -17.069 71.4207
CA -1.81871 -3.78398 88.9619
CA 13.4097 2.34561 56.8192
CA -17.2118 7.92003 64.8249
CA 13.0658 -4.83366 76.6
CA -25.5325 -14.2259 66.4488
CA 18.2276 -22.761 87.839
CA -9.10982 -5.14868 97.6967
CA -5.03193 -13.1592 96.5443
CA 3.27885 -11.4247 54.3245
CA 12.8546 -3.81469 56.7412
CA -4.12819 -19.1178 74.7987
CA -3.01608 -10.2542 95.0571
CA 16.1045 -7.38478 64.1402
CA -17.1823 -11.5577 50.7757
CA -7.33102 10.2217 43.2991
CA 5.69676 -0.121917 65.6195
CA -8.14559 -5.91893 92.2463
CA -5.16911 -2.42338 61.1599
CA 18.2781 -0.894891 46.7293
CA -21.7571 -7.00531 59.4214
CA -30.3658 -12.1685 65.8292
CA -2.33019 24.6038 17.5757
CA 11.1062 -4.48925 61.3211
CA 1.61333 9.8375 25.0905
CA -9.58643 13.9388 13.7036
CA -5.61561 -12.6225 62.0457
CA -0.469419 -1.33353 70.6934
CA -7.14014 -22.2304 75.7341
CA -4.50629 13.8587 67.4649
CA 2.6291 12.5728 10.0525
CA 17.078 -4.51899 49.9862
CA -6.57337 22.6071 17.5884
CA 3.61606 -24.6245 57.1896
CA 0.720642 9.82573 54.4543
CA 0.877725 -7.59879 62.6796
CA 0.218915 3.73532 57.8226
CA -5.48259 10.079 54.8544
CA -18.6878 -11.0174 59.9974
CA -2.31919 -9.66217 91.463
CA -0.00564222 0.767732 62.2494
CA -25.5462 -2.83512 59.0416
CA 18.8098 -4.96087 53.2699
CA 2.66151 0.466496 4.37608
CA -4.92359 -15.8638 86.2804
CA -18.2412 -2.0323 89.5336
CA -1.91625 -3.44192 100.443
CA -9.22013 -8.67161 73.8099
CA -6.56941 8.92738 65.7899
CA 4.05724 -6.59115 56.8049
CA -18.4087 -20.4905 74.3507
CA 17.9987 -7.07832 52.9873
CA -9.94243 5.80613 79.3409
CA 12.6396 -27.4759 81.6377
CA -3.58093 22.3522 15.7385
CA -4.18209 8.53944 52.0075
CA 10.2539 -2.26209 72.6121
CA 17.3251 -1.86652 56.516
CA 6.93087 -15.6542 74.6804
CA -0.803442 -12.3338 85.9429
CA 2.05962 -20.1415 32.9738
CA -19.8005 1.24329 79.5201
CA -0.0788029 -3.93849 87.7729
CA -11.4251 3.93051 79.2336
CA -2.17625 14.9633 79.3388
CA -0.772082 -12.9326 39.9369
CA -2.39163 -22.6649 52.0276
CA 9.15162 -15.6815 91.1171
CA 1.06985 -16.4547 48.0736
CA -8.55828 16.328 63.4767
CA -18.4911 -10.3801 73.8876
CA -8.67131 -2.11008 69.7246
CA -2.69027 29.4235 15.9909
CA -1.63666 24.3645 59.1331
CA -24.6784 -14.1889 60.7436
CA 1.08257 14.2226 12.4596
CA -12.3352 -13.8111 45.144
CA -6.33087 -5.04037 62.9525
CA -3.18137 -4.33509 63.7147
CA 7.69458 1.35111 67.2995
CA -27.4911 -16.2072 62.6817
CA -5.12382 13.1763 78.8719
CA 2.74781 13.1951 16.2685
CA -2.39203 0.84157 71.413
CA 2.9387 19.7072 15.9032
CA -3.96195 -13.6582 61.1583
CA -24.6662 -4.98995 52.2762
CA -11.4768 -0.23343 38.7195
CA 10.0986 -0.625111 74.7382
CA -1.88002 6.60261 3.72292
CA -3.93356 10.4929 22.9051
CA -16.4 -14.9094 67.2675
CA -3.42935 12.6509 77.1873
CA -0.8194 1.52223 46.4805
CA 7.35648 -3.86704 61.5251
CA -13.2869 -11.3891 60.9953
CA 14.8026 -3.16212 40.4702
CA -4.23254 -16.889 58.4239
CA -14.0942 -14.9959 74.8594
CA -13.5723 -16.4804 75.845
CA -3.32427 27.5292 17.9781
CA -28.0929 -7.40611 79.326
CA -17.6671 -7.51957 46.0447
CA -3.83508 -17.8795 45.357
CA -3.53091 21.8326 18.4217
CA 15.4681 -9.47515 63.6103
CA -16.1574 -9.70445 46.9629
CA -7.59183 -3.49781 77.8121
CA 3.45448 -15.5116 82.8392
CA -5.91049 -2.28967 37.7912
CA 0.810945 4.43786 33.4997
CA -2.73264 -2.84686 98.8139
CA -1.87235 13.7705 76.2586
CA 0.243981 4.38383 30.8944
CA 6.92806 -1.58936 72.6192
CA -4.62578 8.48157 8.50488
CA 0.121322 -0.97787 9.85001
CA -19.0207 -12.0594 71.6009
CA -0.528329 1.92075 4.5852
CA 3.6156 -19.8915 79.1479
CA -1.68288 -8.46758 45.941
CA -18.1873 1.00264 74.6308
CA 11.6138 -12.074 42.7424
CA -18.8612 -7.39957 82.2311
CA 2.78261 14.9238 17.6156
CA -14.4985 -20.1089 67.3382
CA 3.30471 4.67674 69.2303
CA -18.8442 -7.21957 69.401
CA -9.83217 -9.77544 95.8887
CA -2.26428 4.98598 34.2303
CA 4.19647 -20.9368 89.7702
CA 3.35332 -0.262243 94.9663
CA -25.192 -0.506612 75.7931
CA -11.2452 3.01607 26.1153
CA -26.5304 -13.307 56.0411
CA -0.551089 29.6807 18.8923
CA -5.8125 -21.681 51.6443
CA -21.5244 -6.97184 88.5747
CA -6.43938 8.63354 83.2218
CA -7.04759 -19.5743 79.9176
CA -14.2592 -10.7196 56.9873
CA -2.41004 15.4639 81.823
CA -13.7501 -0.665977 40.7781
CA 1.68695 -3.48451 76.5117
CA 14.1809 -2.07609 45.113
CA -25.2503 -11.6276 58.1186
CA 2.45633 0.749922 37.2869
CA 0.0382446 -3.18519 65.3259
CA 1.89669 -19.1092 48.9743
CA -15.4058 -20.8046 64.2664
CA 4.23893 -11.3524 67.1334
CA 10.2165 -8.59342 51.7627
CA 0.048548 8.27761 27.2029
CA -5.88849 19.6308 62.6449
CA -16.8668 -12.5692 53.1728
CA -6.70169 14.117 81.6147
CA -0.619908 -8.80914 80.7784
CA 2.27726 -25.7915 53.2019
CA -12.3856 8.90633 53.0749
CA -21.0639 -5.00625 59.3717
CA 9.52385 -22.6857 81.9411
CA -13.6017 -10.2118 42.7907
CA -0.93162 20.0984 61.7476
CA 12.9449 -16.2558 88.1145
CA -11.3991 -8.71487 42.8713
CA -18.3017 -6.45208 75.3164
CA -15.0714 -10.8504 49.9732
CA -1.88013 1.98284 39.6092
CA 2.11094 3.27664 86.4717
CA 2.95414 -4.9083 67.3981
CA -1.2359 -8.91885 63.7609
CA -11.4609 -14.5914 73.4784
CA 12.6657 -8.032 67.937
CA -12.2664 -7.12598 87.3687
CA -16.4402 2.0221 62.9088
CA 13.1067 8.03679 53.6005
CA -4.34249 -15.9057 79.8431
CA -7.59796 -6.98734 89.2443
CA -6.91436 9.83557 8.85122
CA -17.6183 5.29133 63.6671
CA 9.732 -9.44963 46.2096
CA -10.7308 -9.07434 45.1719
CA 5.53183 -24.256 89.6556
CA -5.6274 -17.9134 48.3474
CA -6.31138 15.969 78.2414
CA 13.0424 3.84504 57.8473
CA -22.9942 -6.96945 80.2155
CA 5.99656 -18.7004 75.8621
CA -19.7483 -12.2403 45.4731
CA 11.1246 2.25851 59.7391
CA -5.28745 -7.51548 48.331
CA -30.571 -11.0695 69.0974
CA 11.7845 -11.1414 69.3087
CA -11.0517 2.12529 76.0771
CA -10.564 -25.0926 66.4791
CA -10.976 3.42425 42.157
CA 2.59406 10.6104 19.755
CA 5.79563 15.1135 15.6306
CA 10.0465 -8.49026 48.4141
CA -26.7083 -15.2225 65.3016
CA 0.723065 -27.0516 60.3279
CA -1.2022 9.63488 6.11072
CA -1.18812 -12.5917 61.5786
CA -4.00871 -9.18103 53.4064
CA -2.87943 -2.68466 7.20034
CA -20.4083 -1.58165 52.4351
CA 0.923632 -10.1715 70.9809
CA 0.691806 5.42745 8.41147
CA -1.84645 -14.9484 41.291
CA -0.389406 -4.08271 57.3594
CA -4.95108 -19.9205 50.0743
CA -1.20375 -11.6563 76.8233
CA 2.82298 -19.4306 58.5697
CA 1.36611 -7.58495 58.1513
CA -0.086214 -16.3639 83.7034
CA -22.5559 1.16919 79.6547
CA -11.9331 14.8415 55.8362
CA 3.75656 -9.10193 73.7785
CA -16.0361 -6.46531 84.7344
CA -23.175 -16.0672 57.7664
CA 8.40642 5.94753 63.2317
CA -18.7393 -6.16051 89.5458
CA -3.37699 -5.51876 33.9778
CA 6.85307 18.1685 16.8793
CA -11.6237 15.547 59.0059
CA -7.7724 3.46389 48.277
CA -7.11056 14.7522 42.5054
CA -15.8778 5.81636 56.8802
CA 5.33288 -12.6338 50.1922
CA 2.06546 -16.4596 53.0581
CA -17.5957 -9.58922 45.5341
CA 1.72215 -21.2078 75.0378
CA -5.94247 11.8371 53.4774
CA -2.85709 22.1356 60.7771
CA 4.13515 -2.82805 86.1964
CA -6.83857 -11.0634 70.3227
CA -3.64292 10.8102 77.6976
CA -14.3097 20.9299 16.8333
CA -14.0605 -20.1711 73.6044
CA -14.4525 2.34067 61.9439
CA -22.7921 -10.1007 91.1768
CA -6.58903 -2.04872 32.0381
CA -12.472 -18.5312 68.3221
CA 13.6117 -6.88531 79.6511
CA 1.50335 -8.4535 41.2523
CA 18.462 -3.56654 68.0017
CA 12.7934 -24.7314 83.3521
CA -8.36382 27.7671 16.5214
CA 9.21929 -9.90872 65.5681
CA 1.2769 13.2686 17.3573
CA -13.2952 3.53645 56.0571
CA -12.5783 -24.1319 58.3807
CA -12.1091 1.68837 30.1126
CA -17.9615 5.16232 68.6657
CA -0.206261 -7.32962 66.4245
CA -5.89625 -0.500743 72.2726
CA 16.3339 -4.34928 77.0591
CA -15.3974 -9.435 85.1609
CA -2.27793 5.30305 84.8947
CA 10.2267 -19.7449 77.4442
CA -11.2296 5.37818 77.8494
CA -4.89127 -17.7506 78.3723
CA -5.94893 1.51853 75.5023
CA 14.7233 -24.2351 86.5969
CA 18.0628 -3.01212 71.6199
CA -5.09972 -3.91174 103.895
CA 15.0221 12.5908 61.1201
CA -2.04165 -17.4601 36.755
CA 2.87793 -0.580465 91.1736
CA -26.9499 -13.6633 68.0997
CA -7.68081 -16.3098 53.5534
CA 14.8467 0.60682 68.4266
CA -3.73469 -12.6448 81.8002
CA -3.91479 7.69072 31.052
CA -0.955643 3.19789 77.9306
CA -0.369848 3.18283 62.1512
CA 5.4125 -2.05437 84.5354
CA -15.2187 -18.736 64.6966
CA -9.66475 7.10294 53.1282
CA 15.0774 -18.9805 84.5981
CA -14.8766 -21.0414 76.4159
CA -7.79791 -7.22742 43.4186
CA 1.72966 3.51753 79.7141
CA 8.60371 -19.3023 78.9349
CA -29.5875 -7.50625 72.9099
CA -15.1896 -22.9081 68.4412
CA -1.09625 -20.2983 53.0894
CA 12.4906 1.53263 39.5615
CA -17.9954 1.11111 77.7698
CA -15.2283 -2.65573 73.8313
CA -16.1148 -12.0175 56.4429
CA -12.1072 -15.2386 67.6175
CA 2.49262 -7.5591 76.7647
CA 14.7031 -2.51443 54.4609
CA -1.48271 -25.3422 61.7403
CA -5.47961 -6.29702 83.1585
CA -1.64023 8.63095 86.4733
CA -10.6702 4.26112 58.3059
CA 2.30322 -24.3245 54.2779
CA 13.3371 -9.81694 66.3551
CA 1.63255 -4.03393 69.3433
CA -0.853187 -16.064 36.6532
CA 5.67115 -4.61771 60.0327
CA -1.82704 -9.16892 36.6239
CA 12.3686 -6.57705 70.1308
CA -0.763643 5.43231 67.4121
CA 2.2494 -17.2442 36.7176
CA -9.52477 -12.7689 73.1081
CA 11.4404 4.08461 63.9404
CA -7.88119 6.97185 49.6779
CA -8.79546 -3.33729 34.2723
CA -16.5075 4.31508 75.136
CA -6.05249 29.4715 18.4875
CA 13.7425 -7.67869 55.8344
CA 3.07241 -9.69445 63.7954
CA -6.64269 13.5266 65.5603
CA -2.96712 -2.2859 69.5269
CA 13.0341 -14.3593 87.2954
CA -4.67637 30.2216 15.5677
CA -3.92713 -4.66906 87.2175
CA -18.4413 4.72337 79.6367
CA -25.6616 -6.17506 40.134
CA -10.9355 -12.1645 70.0625
CA 15.9434 -3.41072 67.6645
CA -12.2048 -6.71092 55.9058
CA -24.6536 -2.88785 65.0305
CA -21.8398 3.71159 74.6933
CA -3.6897 -24.239 61.6424
CA 18.0456 -7.78641 57.8476
CA -1.95178 -4.3803 54.566
CA -0.934441 -0.740152 42.0556
CA -4.42006 -20.0033 61.1337
CA 3.43982 -1.02725 81.3618
CA -10.1223 0.124879 41.6595
CA -4.19914 -1.94435 65.402
CA -13.0567 -11.0602 53.5586
CA -0.5294 -13.514 51.3742
CA -6.97811 31.8172 19.3331
CA -10.1493 3.48424 80.7424
CA -13.7271 4.9221 60.7826
CA -6.03007 -9.08154 93.5647
CA -8.69267 -19.1617 63.0815
CA -5.18999 -21.8243 60.5362
