489

CA 16.8053 -1.00397 52.3991
CA -1.36383 11.4039 18.6868
CA -3.92879 6.93115 79.5523
CA 3.55153 -16.5913 51.7152
CA 1.34022 2.57526 59.6761
CA 3.81305 2.57919 76.6922
CA -3.66133 -12.3009 86.4812
CA -3.82406 28.7966 19.1884
CA -8.40256 -2.72695 41.1707
CA -7.1231 -13.3531 36.6118
CA 2.93767 16.1506 77.1739
CA -0.335389 4.19175 1.71001
CA -20.3857 -4.22381 57.5555
CA 4.9292 11.4263 84.1369
CA -3.37163 -14.4376 89.9731
CA 2.88375 2.94945 37.7437
CA -3.9067 -11.4642 52.6377
CA -30.7389 -12.7762 70.8452
CA 3.6625 -4.37908 43.6873
CA 18.7491 -2.02141 44.2058
CA -7.05847 3.08004 31.3936
CA -19.6074 -3.26443 48.5716
CA -11.9558 -17.7525 58.9201
CA 1.88192 17.4535 14.5524
CA -18.7125 -8.8378 80.8791
CA -4.00019 3.09619 80.0671
CA 1.47327 -6.6271 60.416
CA -16.7075 -6.16679 68.1906
CA -1.97119 12.7431 29.0583
CA -19.8209 8.14725 59.3172
CA -5.66464 -8.01075 98.353
CA 0.807046 -7.22237 67.7918
CA -5.97643 2.5849 77.3632
CA -21.6046 -6.75002 62.9106
CA 4.88445 10.6622 91.4902
CA -8.31005 -27.7762 81.0834
CA -4.32405 -20.2504 47.6358
CA -15.068 -3.22873 62.3145
CA -24.9124 -0.806177 62.3224
CA 1.63014 -1.88742 6.87092
CA -2.98069 -14.8648 80.5817
CA -4.69418 1.73558 48.2736
CA -5.03193 -10.8234 88.4864
CA -1.50524 7.16391 56.6701
CA -15.6864 -14.3246 62.2902
CA -4.76721 8.98177 7.45126
CA -7.44629 -12.15 59.7352
CA -4.99988 10.5124 82.2157
CA -5.73488 2.23149 59.9033
CA 6.24657 2.57301 63.7326
CA -0.0246681 8.24389 5.05958
CA -0.199911 6.19746 5.12251
CA -15.3615 1.64916 65.6914
CA 5.65909 1.40733 72.698
CA -7.66826 -5.62292 80.7177
CA -6.48221 5.5565 9.94327
CA -8.39609 13.9214 17.3246
CA -12.3668 -13.5864 58.6043
CA -17.98 -9.83443 58.7674
CA -11.1248 19.124 18.3537
CA -1.20031 -6.50158 96.9866
CA -3.40122 32.0832 18.7198
CA 11.8377 -1.41942 56.6767
CA -23.5435 -0.774159 65.1853
CA -22.6375 10.6482 56.7528
CA -7.16067 -20.4884 49.7044
CA -6.43579 -21.6295 61.7929
CA 0.0486268 -17.0447 45.0248
CA 4.40113 -13.6247 34.2166
CA -2.78472 -19.5447 72.0294
CA -10.7983 -9.12196 37.287
CA -20.0625 0.417263 44.4861
CA -18.5575 -3.15821 43.8282
CA -13.4603 -9.76094 38.5426
CA 2.21351 14.6183 72.9593
CA 4.31761 -18.9624 91.8307
CA -18.8001 -12.4943 56.021
CA 4.82161 -16.0418 55.1939
CA -22.7595 -3.02515 59.2077
CA -19.2192 5.08945 62.7367
CA -5.62565 -8.04064 43.9881
CA -4.09718 -18.2782 38.2887
CA -16.217 22.397 15.4802
CA 0.36134 -5.07938 63.1301
CA -10.1274 -10.1562 76.3328
CA -1.13855 -15.5115 38.71
CA 4.67538 -16.7313 78.7668
CA -26.8776 -16.7049 58.794
CA -15.3716 1.05824 45.4169
CA 7.23592 -14.2822 48.9108
CA 1.14643 12.8549 80.5378
CA -2.12179 -16.9264 79.9055
CA -27.1751 -3.85389 39.172
CA -0.180626 -8.01098 55.7049
CA -18.2868 -5.41416 71.9182
CA -0.498222 21.2489 19.526
CA -13.9294 -10.3312 64.6186
CA -1.27896 -2.77319 66.7594
CA -11.2282 2.6743 54.6882
CA -11.0216 -5.12063 34.823
CA 1.50544 27.0085 16.9261
CA -5.71649 20.5378 73.8825
CA -10.4989 10.6354 17.4906
CA -14.5278 -11.5941 51.9116
CA -4.09694 3.23069 30.0045
CA -14.5963 3.8523 54.0237
CA -0.299907 -2.00515 88.6573
CA -7.85353 -13.2724 40.0522
CA -8.54454 9.13121 71.1447
CA 5.45222 -10.1763 58.2567
CA -3.25702 8.3011 29.592
CA -18.446 4.9898 79.9602
CA 4.08537 -6.85369 67.3175
CA -23.4667 -12.0354 69.6482
CA -21.0571 -6.52033 42.2774
CA 12.9721 7.01467 57.8772
CA 4.29602 -18.9511 50.1095
CA -9.38866 14.392 65.9183
CA -14.1412 -11.1132 79.7227
CA 15.4916 -16.3142 65.1467
CA 0.738306 -6.76054 79.3405
CA -28.5053 -14.0508 66.368
CA -2.81715 12.8748 18.2397
CA 12.8257 -5.64898 64.962
CA -0.5626 -13.3154 67.7743
CA -11.5682 -1.48874 82.4587
CA -33.8965 -12.4678 67.6673
CA 8.24227 6.58261 79.4256
CA -11.8581 -7.98109 43.4478
CA -2.37716 -23.9374 45.3987
CA -22.5561 -0.205159 69.2611
CA 1.46573 -11.9109 67.7365
CA 0.0520672 7.88584 73.5843
CA -1.42226 -7.81892 35.2459
CA -1.18303 -6.60979 88.2582
CA 3.08085 15.5533 84.8145
CA 0.685109 7.50653 25.7014
CA 1.27431 2.29882 63.3723
CA 17.5186 -12.148 62.1245
CA 0.254011 8.80127 70.5793
CA 2.93881 -17.4131 58.0056
CA 3.10288 0.943608 86.988
CA 11.4667 -29.1068 80.2172
CA -14.162 -17.333 53.1064
CA -3.77406 5.68721 56.9802
CA -18.7415 -2.04078 86.7145
CA 9.27506 4.07676 81.2081
CA -1.81871 -3.78398 88.9619
CA -5.01061 10.6317 74.4265
CA 4.72158 1.37985 61.1419
CA 3.86316 15.8049 75.0657
CA -25.5325 -14.2259 66.4488
CA -13.7975 -0.609101 34.1986
CA 6.83553 -0.343895 61.8951
CA -19.9098 -4.78829 77.0013
CA -21.8331 2.17202 71.9143
CA -30.7611 -16.1275 66.105
CA -4.12819 -19.1178 74.7987
CA 2.54096 -21.0329 47.5248
CA -27.2821 -13.3124 68.7875
CA 1.99866 19.3562 12.5985
CA 0.861084 20.2723 14.2438
CA 7.50256 -9.29464 57.0907
CA -1.1322 3.60265 3.52836
CA -5.16911 -2.42338 61.1599
CA 7.69712 -11.1128 65.8537
CA -7.59901 -21.8914 52.0466
CA -4.43684 8.45586 53.7408
CA 13.1909 -9.35821 62.9489
CA -3.88012 3.571 74.426
CA 1.61333 9.8375 25.0905
CA 14.4221 -0.7157 67.2392
CA -9.0406 5.97614 51.9331
CA -0.15271 -0.686811 81.8953
CA -16.1553 -8.37164 62.2994
CA -3.19474 -5.78636 81.0323
CA -5.97397 -11.5189 60.9279
CA -24.0389 2.57135 73.5846
CA -6.57337 22.6071 17.5884
CA -7.40118 11.2089 2.46671
CA -1.97794 -6.87414 5.92689
CA -18.5074 -5.3674 83.4624
CA -0.0540907 21.1569 15.9506
CA -5.48259 10.079 54.8544
CA 3.20857 -17.1633 88.4999
CA 6.24858 2.05688 70.8297
CA 7.72552 -11.8364 48.7178
CA -15.391 7.53426 52.5576
CA -13.0246 -7.43927 81.8638
CA 2.66151 0.466496 4.37608
CA -2.27929 9.44851 32.3853
CA -17.8569 2.57918 61.7515
CA 1.354 -18.029 59.6867
CA -18.5158 2.64879 78.2285
CA -14.4803 -12.1624 94.1892
CA 0.839019 2.81523 39.7854
CA -3.32111 -14.0462 87.993
CA 17.9987 -7.07832 52.9873
CA -13.0269 -15.0415 79.6387
CA -8.87766 -13.4323 71.0592
CA 0.0404119 1.08622 49.4769
CA -7.23038 -13.2221 61.6349
CA -25.3489 -5.2596 43.0138
CA -13.3056 -16.0547 66.1646
CA -3.25851 -0.0264914 71.545
CA -3.28787 -4.27422 79.831
CA -11.094 -9.85562 86.7716
CA -8.25504 -15.7546 69.8891
CA -24.6461 -4.42673 58.7063
CA -15.272 -0.124489 53.5273
CA 8.35111 -19.6325 59.7364
CA -7.41956 -15.4695 49.8857
CA -2.39163 -22.6649 52.0276
CA -21.361 -8.53181 43.5454
CA 1.06985 -16.4547 48.0736
CA -23.3858 -2.20231 78.4363
CA 7.64765 2.2408 83.5179
CA 10.6356 -6.98061 57.1659
CA -2.69027 29.4235 15.9909
CA -5.56094 -22.3182 39.7338
CA -2.69108 9.68156 35.2138
CA -7.98101 -22.9444 57.8071
CA -12.3352 -13.8111 45.144
CA -6.33087 -5.04037 62.9525
CA -11.5005 -11.5052 89.9843
CA -1.46512 -15.6839 34.0788
CA -4.33446 3.65768 76.3648
CA -7.47153 -5.4931 82.8108
CA 2.74781 13.1951 16.2685
CA -4.2937 -15.3883 62.9662
CA 2.9387 19.7072 15.9032
CA -17.3864 -7.01799 82.4912
CA -6.54531 8.85016 78.0989
CA -11.4768 -0.23343 38.7195
CA 6.34859 -9.8904 64.6066
CA 4.92529 -24.6991 59.4818
CA -12.0895 -22.0507 55.9755
CA 2.6624 13.2602 87.0708
CA 8.43857 -19.6421 80.0315
CA -19.3205 3.13927 63.4091
CA -6.45147 -9.03288 85.4135
CA 13.5311 -23.1635 85.629
CA 7.28915 -17.4679 61.6976
CA 0.725871 -10.1623 68.1821
CA -1.77114 -16.3326 41.978
CA 11.4407 3.0296 61.4135
CA -3.32427 27.5292 17.9781
CA -28.0929 -7.40611 79.326
CA -5.68268 -19.1207 46.7501
CA -27.3889 -16.1685 57.0157
CA -1.5756 5.35422 41.7153
CA -11.0383 -13.9081 49.9872
CA 15.5765 -0.816456 72.4275
CA -1.80001 11.9235 47.8551
CA -3.49687 -22.8476 71.3129
CA 6.92451 16.5189 10.2993
CA 1.16843 3.16674 2.63328
CA 7.6836 -18.8205 49.0418
CA -3.66259 4.78939 28.5961
CA -14.3238 -1.50528 88.2232
CA -4.25273 25.595 19.093
CA 1.86929 30.6718 16.4856
CA 0.121322 -0.97787 9.85001
CA -8.48177 -8.57541 95.8788
CA -0.528329 1.92075 4.5852
CA -6.30687 -24.8348 54.3571
CA -1.68288 -8.46758 45.941
CA -18.1873 1.00264 74.6308
CA 13.2344 -0.174561 39.1174
CA 10.4639 -13.8208 45.0161
CA 17.814 -17.7037 92.0342
CA -8.36041 -9.32429 77.2046
CA 0.975854 -29.6905 51.5884
CA -18.8442 -7.21957 69.401
CA -9.83217 -9.77544 95.8887
CA -2.26428 4.98598 34.2303
CA -0.28142 -10.1179 72.6451
CA -4.87396 -22.36 55.7067
CA 9.33507 -9.74606 47.4011
CA -7.90064 -4.30003 98.66
CA 15.3889 -3.1268 61.4949
CA 1.99196 2.48581 70.3543
CA 4.43805 -19.0046 60.1864
CA 6.64462 -13.8611 54.2672
CA 2.52918 -21.4673 71.7943
CA -0.886059 -7.7652 101.284
CA -16.9631 4.56883 44.3406
CA -0.843467 10.428 83.5991
CA 3.89243 -4.5713 56.6799
CA 2.4706 6.34207 58.1211
CA -8.3597 -22.0071 45.8473
CA -8.59888 -5.40679 43.1457
CA -11.637 -18.4665 56.2306
CA 3.62149 2.14698 69.5731
CA -3.68153 2.99017 34.5931
CA -4.27153 -9.01767 39.9433
CA 9.08174 -24.1234 85.0807
CA -14.0443 -6.1352 44.3258
CA 0.048548 8.27761 27.2029
CA 1.21581 -3.7671 91.6875
CA -2.44703 -20.1349 65.7074
CA 4.94735 -6.63527 52.8775
CA -7.33825 -18.9071 59.0162
CA 2.27726 -25.7915 53.2019
CA 1.31295 -27.4281 59.4592
CA 5.26626 5.6482 80.9858
CA 2.60673 -16.9122 42.2891
CA -7.44432 5.08987 50.8347
CA 3.18939 -2.1424 61.1654
CA 11.7561 -20.2503 84.663
CA -15.4115 -2.86859 50.2124
CA -1.23666 -21.8297 74.6362
CA -7.57477 -23.4923 43.4629
CA -1.88013 1.98284 39.6092
CA -15.5668 -4.67198 76.7715
CA 5.7773 -7.35412 46.6411
CA -6.63531 26.5347 16.2701
CA 16.4358 0.843689 57.2435
CA -13.56 6.17986 53.2428
CA -22.4635 -9.39842 85.7774
CA -4.63548 -15.453 36.6371
CA 13.1067 8.03679 53.6005
CA -4.34249 -15.9057 79.8431
CA -1.29891 15.1093 84.163
CA -4.41117 -6.08194 79.1494
CA -8.3219 -23.3689 81.2942
CA 0.591487 -8.92353 42.7097
CA -4.31691 28.1217 14.8968
CA -5.00225 11.2302 7.39689
CA -7.80074 3.79834 61.8861
CA -8.21176 -7.94729 91.157
CA 4.5584 -6.99676 61.3032
CA -5.34594 7.01756 4.64055
CA -7.83291 -10.6736 95.4287
CA -12.416 1.5758 37.9591
CA -20.6879 -8.97306 60.5867
CA 14.352 -4.14426 68.8737
CA 2.23339 -13.2941 39.9618
CA -16.1021 -14.5725 78.4589
CA -23.4683 -7.6293 46.5465
CA -8.62004 6.11044 60.9799
CA -8.75375 -8.42407 87.4683
CA 2.59406 10.6104 19.755
CA 5.79563 15.1135 15.6306
CA 1.07196 -21.48 69.6179
CA -14.6664 1.54305 40.5528
CA 0.995149 -27.2249 57.4884
CA 0.462322 0.443577 4.16558
CA -16.5097 -12.4602 69.9725
CA -7.66857 -18.1103 72.3096
CA -2.87943 -2.68466 7.20034
CA -0.371961 6.37999 58.2119
CA 0.923632 -10.1715 70.9809
CA -4.17867 8.45459 11.1264
CA -0.176212 -18.5165 90.7952
CA -2.42476 2.49056 81.1043
CA -3.08154 -0.72409 89.0505
CA -1.20375 -11.6563 76.8233
CA -2.31556 -22.2618 57.6574
CA 6.76798 -8.76219 66.5284
CA -9.19974 -11.8169 42.3136
CA -22.5559 1.16919 79.6547
CA -6.83546 4.81776 58.4321
CA 0.0827268 12.441 85.0594
CA 6.34323 -6.323 69.9443
CA 4.81748 0.147171 74.8599
CA 1.18449 -18.8041 55.9153
CA 7.95427 -21.7649 80.8108
CA -9.29602 -10.5973 83.0956
CA 3.52747 -6.66769 80.0804
CA -11.6237 15.547 59.0059
CA 0.245143 13.7949 83.8386
CA -14.4308 -14.6419 77.6046
CA -22.8143 0.316153 81.8941
CA -4.60526 -5.69231 64.1676
CA -8.09584 -20.132 78.1963
CA -19.9713 -18.5911 57.4419
CA 1.72215 -21.2078 75.0378
CA -20.6885 -11.6599 68.5092
CA -1.04665 -24.147 61.8445
CA -13.9041 16.7639 14.9858
CA -7.6164 12.0878 16.4041
CA -19.537 -9.78804 47.7784
CA -14.3097 20.9299 16.8333
CA -0.698947 -9.38172 50.8818
CA 8.57046 -22.6091 60.279
CA -7.91504 -26.6971 56.0916
CA -10.8463 -7.91973 96.6296
CA 8.96871 4.01238 66.3539
CA -18.9816 -6.7932 85.3964
CA -6.56097 -7.35993 64.059
CA -5.26211 4.01686 62.1034
CA 13.3578 0.291472 41.3991
CA -8.36382 27.7671 16.5214
CA -21.861 -3.77039 45.998
CA 1.2769 13.2686 17.3573
CA -5.43366 -4.37751 90.7062
CA 14.7239 -0.784737 42.6122
CA -12.1091 1.68837 30.1126
CA 12.1641 -3.1478 58.817
CA -5.39376 -12.3713 76.6881
CA -5.89625 -0.500743 72.2726
CA -8.37405 -0.251316 51.4189
CA -11.7371 0.230172 53.8372
CA -0.303871 -14.8628 53.8472
CA -10.4664 -0.882444 35.5303
CA -12.6576 -6.02856 36.6395
CA -4.89127 -17.7506 78.3723
CA -8.43751 -2.33329 37.591
CA -6.58313 -20.9228 46.4679
CA -11.4842 -13.8427 38.8868
CA -7.38133 -21.7543 67.0234
CA -2.67194 9.9176 80.182
CA -2.04165 -17.4601 36.755
CA -25.996 -5.65644 63.5507
CA 1.30611 -2.50287 87.2633
CA -0.378034 -7.71387 78.1542
CA 3.1768 -9.20642 32.0248
CA -3.73469 -12.6448 81.8002
CA 4.17243 -22.396 77.0429
CA 17.0331 -20.7057 88.3954
CA -23.2536 -9.6156 81.3332
CA 0.199692 -10.3721 55.1755
CA -8.02249 -10.2427 61.2794
CA 2.02117 -20.063 68.2
CA -0.522111 0.637707 68.6072
CA -1.69001 -14.8256 50.9315
CA -7.55077 -7.72297 45.8838
CA -22.6244 -14.841 57.3751
CA -9.54286 -7.64446 78.8773
CA 6.87066 -8.27267 77.399
CA -13.3096 -14.4767 81.824
CA 4.68842 -14.5853 53.4087
CA -8.67713 -17.3297 62.8053
CA -20.5184 2.16848 59.6566
CA -21.2657 -1.99953 60.4582
CA 10.9616 -24.0159 81.0936
CA -1.04798 16.4838 69.6672
CA 8.75943 2.20783 38.9785
CA 6.55355 -5.16677 68.3444
CA -2.01897 -11.8488 50.0803
CA -5.53007 13.6909 57.5241
CA -16.5612 4.67674 70.8732
CA 1.14556 1.51263 83.0291
CA -21.0732 -12.2425 64.4061
CA -20.8345 -8.07206 58.8168
CA -21.2734 -7.73981 71.0484
CA -0.853187 -16.064 36.6532
CA -2.09443 -6.49493 36.8009
CA -7.56496 2.76223 53.3699
CA 12.3686 -6.57705 70.1308
CA -0.763643 5.43231 67.4121
CA -15.3275 0.149092 62.232
CA -9.16816 -13.4967 90.4639
CA 11.4404 4.08461 63.9404
CA -3.3854 -24.7133 57.3109
CA 1.08172 3.0681 67.0172
CA 5.09199 13.1625 87.5467
CA -6.05249 29.4715 18.4875
CA 11.1659 -29.9745 77.6641
CA -5.03232 -4.52275 69.1183
CA 4.79568 18.4999 81.0053
CA 14.1728 -3.75196 72.6644
CA -13.7953 -0.760504 80.9336
CA -4.67637 30.2216 15.5677
CA 0.490918 -16.6903 81.7574
CA -5.94763 15.6565 74.0147
CA -5.03306 9.7516 50.0502
CA -7.72612 13.9049 62.8507
CA 15.9434 -3.41072 67.6645
CA 6.05505 -15.7606 61.1289
CA 10.0575 -4.17179 67.9223
CA -1.35946 12.383 13.7845
CA 1.13781 -30.9691 58.8808
CA 18.0456 -7.78641 57.8476
CA 20.9712 0.0483614 48.9581
CA -3.02243 -20.2982 38.5208
CA -31.1512 -14.3204 67.9118
CA 3.6137 0.276086 84.233
CA 19.1551 -4.62533 51.0392
CA -28.4707 -4.86108 76.6356
CA -4.61731 11.9173 52.3002
CA 17.2823 -21.2377 91.1638
CA -9.00814 -0.591054 77.1228
CA -9.64291 -4.88254 45.3526
CA -13.7271 4.9221 60.7826
CA 5.49926 -11.0349 61.2136
CA -8.69267 -19.1617 63.0815
CA -22.0162 -5.96821 44.5951
