489

CA 16.8053 -1.00397 52.3991
CA -14.2583 -9.59508 88.0127
CA -10.0816 -3.36082 79.3482
CA -11.7237 -3.72512 36.9483
CA 1.04995 0.174451 58.4025
CA -19.8166 -9.24222 74.9529
CA -3.66133 -12.3009 86.4812
CA -3.82406 28.7966 19.1884
CA -8.40256 -2.72695 41.1707
CA -7.1231 -13.3531 36.6118
CA -13.5669 -7.7315 67.6234
CA -0.335389 4.19175 1.71001
CA -12.9118 -14.2531 41.8477
CA 4.9292 11.4263 84.1369
CA -2.52563 -2.78969 89.6016
CA -6.31939 26.9073 14.0701
CA -12.5409 -13.5353 74.8349
CA -30.7389 -12.7762 70.8452
CA -0.620912 -24.2097 45.9248
CA 18.7491 -2.02141 44.2058
CA -7.05847 3.08004 31.3936
CA -19.6074 -3.26443 48.5716
CA 14.4855 -10.2293 48.4194
CA 1.88192 17.4535 14.5524
CA 2.56013 -2.03718 4.28792
CA 17.6361 -19.71 91.33
CA 1.2598 -15.584 68.6775
CA 4.20549 -9.61292 30.2549
CA 0.133871 -10.2782 39.9183
CA -5.70185 -15.3641 58.2944
CA -5.66464 -8.01075 98.353
CA 0.807046 -7.22237 67.7918
CA -2.53258 -13.2613 85.3288
CA -21.6046 -6.75002 62.9106
CA 4.81797 -20.7399 59.5656
CA -9.58502 -15.3123 80.3617
CA -4.32405 -20.2504 47.6358
CA 0.842712 -10.4438 35.1374
CA -27.5205 -3.7927 75.4871
CA 1.63014 -1.88742 6.87092
CA 2.10881 -3.46575 5.31397
CA 2.50473 -24.6619 64.6569
CA -5.03193 -10.8234 88.4864
CA -1.50524 7.16391 56.6701
CA -15.6864 -14.3246 62.2902
CA -15.9311 -14.7684 41.5972
CA -0.841132 -6.71856 58.7596
CA -22.844 10.8335 60.6214
CA 3.84583 -29.1241 57.5317
CA 6.17537 4.70534 76.693
CA -0.0246681 8.24389 5.05958
CA -0.199911 6.19746 5.12251
CA -9.15784 -8.85884 60.5311
CA 4.99489 -1.70677 44.0258
CA -7.66826 -5.62292 80.7177
CA -3.6455 -1.60035 87.6003
CA -8.39609 13.9214 17.3246
CA 0.732384 -7.00864 93.2269
CA -8.87814 -10.5197 48.2985
CA -11.1248 19.124 18.3537
CA 7.64104 -4.24546 42.8342
CA -3.40122 32.0832 18.7198
CA 11.8377 -1.41942 56.6767
CA 11.4277 -5.34647 51.3995
CA 3.0819 10.8642 90.9655
CA 4.68765 -20.5763 74.144
CA -6.43579 -21.6295 61.7929
CA 9.85274 -26.7834 81.9584
CA 4.40113 -13.6247 34.2166
CA -11.4002 -13.7354 94.0614
CA 3.11687 -3.73729 58.9929
CA -2.86416 -23.4356 73.3168
CA -19.2995 2.04555 81.1167
CA -13.4603 -9.76094 38.5426
CA -15.6983 -5.13643 63.4705
CA -3.79973 -26.964 59.8213
CA -18.8001 -12.4943 56.021
CA -1.73059 -16.649 65.1843
CA -21.4845 -15.6541 67.1448
CA -19.2192 5.08945 62.7367
CA -19.7917 -1.85416 44.4536
CA -17.0272 3.4837 70.4093
CA -16.217 22.397 15.4802
CA -18.9149 -7.12926 42.0893
CA 3.34429 -14.5041 50.2219
CA -16.4149 -8.37722 79.6909
CA 4.67538 -16.7313 78.7668
CA -26.8776 -16.7049 58.794
CA -15.3716 1.05824 45.4169
CA 0.399932 -19.3104 52.579
CA -4.28166 -12.0595 42.092
CA 9.52098 -18.0369 84.0345
CA -27.1751 -3.85389 39.172
CA -0.180626 -8.01098 55.7049
CA -18.2868 -5.41416 71.9182
CA -0.498222 21.2489 19.526
CA -7.89294 -5.90276 95.5763
CA -0.777422 -15.8423 79.3992
CA -11.2282 2.6743 54.6882
CA -3.06708 2.19805 79.1781
CA 1.50544 27.0085 16.9261
CA -2.05931 6.92562 44.5111
CA -10.4989 10.6354 17.4906
CA -5.42724 3.39355 39.7682
CA -13.6435 -17.036 70.0715
CA -0.573295 -23.9445 82.2349
CA -6.83598 -25.4562 80.3161
CA -7.85353 -13.2724 40.0522
CA -3.99538 -1.21678 65.3125
CA -5.35244 -19.6967 57.4962
CA 5.82447 -17.7562 80.7294
CA 4.30395 -7.96497 43.3024
CA 5.64985 16.1159 85.7648
CA -23.4667 -12.0354 69.6482
CA -19.2809 -8.73861 47.7
CA 12.9721 7.01467 57.8772
CA 4.29602 -18.9511 50.1095
CA -7.86532 11.2549 57.9444
CA -10.7667 -19.2517 66.7318
CA -23.1605 -13.9829 69.3165
CA 2.36623 -11.9487 51.3882
CA -5.68139 1.21319 42.0895
CA -2.81715 12.8748 18.2397
CA 12.8257 -5.64898 64.962
CA -13.0981 24.2415 16.9315
CA -11.5682 -1.48874 82.4587
CA 8.96337 -6.6813 48.3302
CA -31.8439 -15.474 70.7256
CA 8.75718 -18.8337 87.9928
CA 11.3453 -20.1984 48.4266
CA 6.75564 5.53615 70.2826
CA -1.65248 -28.8558 58.3217
CA 0.0520672 7.88584 73.5843
CA 9.1845 -19.9058 82.5584
CA -1.18303 -6.60979 88.2582
CA -0.838975 -15.7788 90.3761
CA -3.49603 13.4534 8.10314
CA 1.27431 2.29882 63.3723
CA 17.5186 -12.148 62.1245
CA 1.60077 -0.813185 85.7775
CA -7.61745 -11.8017 89.8437
CA -24.5958 -0.650887 84.5535
CA -19.9079 2.50381 73.5964
CA -5.8702 -2.76213 50.6788
CA -25.2206 -3.6642 64.8764
CA -14.2721 -10.8664 60.8821
CA 9.27506 4.07676 81.2081
CA 11.8482 -6.07447 49.6842
CA 1.01885 -23.1722 66.5107
CA 4.72158 1.37985 61.1419
CA 3.86316 15.8049 75.0657
CA -28.2134 -8.4264 43.3282
CA -13.7975 -0.609101 34.1986
CA -4.81714 -14.7889 89.2416
CA 4.35918 -23.1174 63.6422
CA -21.8331 2.17202 71.9143
CA -7.15259 -21.2774 55.0437
CA 1.58205 -15.749 70.9259
CA -5.02213 3.15373 60.0168
CA -27.2821 -13.3124 68.7875
CA 1.99866 19.3562 12.5985
CA 15.7768 -17.1026 87.0581
CA -1.74848 -5.97771 98.1846
CA -1.1322 3.60265 3.52836
CA -3.38187 1.95811 84.129
CA 7.69712 -11.1128 65.8537
CA -14.6224 -1.42472 75.9759
CA -4.43684 8.45586 53.7408
CA 13.1909 -9.35821 62.9489
CA -4.8589 0.70848 6.81294
CA 1.61333 9.8375 25.0905
CA 14.4221 -0.7157 67.2392
CA -9.0406 5.97614 51.9331
CA -1.75065 6.95018 62.8112
CA -11.2925 -12.9881 86.3102
CA 18.5952 -9.9785 58.2438
CA -1.7649 -10.5534 41.055
CA -19.9229 -7.48084 63.3115
CA -6.57337 22.6071 17.5884
CA 15.0561 -21.7221 92.0858
CA -1.97794 -6.87414 5.92689
CA -19.9753 -8.54708 43.3359
CA -0.0540907 21.1569 15.9506
CA -5.48259 10.079 54.8544
CA -1.53954 1.27853 75.4677
CA -0.0790072 4.10089 80.808
CA -9.67563 -4.30091 87.2481
CA -0.345657 8.2258 75.8562
CA -19.8794 5.16931 81.563
CA 2.49047 4.49923 34.879
CA -2.27929 9.44851 32.3853
CA -12.2063 1.15958 69.7944
CA 1.354 -18.029 59.6867
CA -18.5158 2.64879 78.2285
CA -10.2629 -1.30201 37.6809
CA -6.93244 -14.0913 89.6353
CA -3.32111 -14.0462 87.993
CA -3.44701 6.33774 71.3195
CA 2.23362 16.844 73.4726
CA -8.87766 -13.4323 71.0592
CA 2.42904 6.31384 73.5692
CA -14.5363 -13.1215 81.6567
CA -25.3489 -5.2596 43.0138
CA -13.3056 -16.0547 66.1646
CA -17.5848 -8.25581 45.7364
CA -3.28787 -4.27422 79.831
CA -17.6498 5.23795 51.8358
CA -15.2217 -5.44459 71.0235
CA -20.4704 -15.5945 70.5738
CA -6.84697 -6.36408 57.8152
CA 8.35111 -19.6325 59.7364
CA -7.41956 -15.4695 49.8857
CA -2.39163 -22.6649 52.0276
CA -7.13444 -3.25282 81.7182
CA -3.3525 -20.6431 80.4531
CA -23.3858 -2.20231 78.4363
CA -14.2575 -15.2957 88.8093
CA 1.33601 14.8706 82.4612
CA 0.160507 -5.23886 93.7458
CA -13.2372 -11.143 66.4626
CA 1.05952 -6.62065 45.3942
CA 3.09706 -12.6435 32.212
CA -12.3352 -13.8111 45.144
CA -6.33087 -5.04037 62.9525
CA 2.79582 4.79935 84.0217
CA -14.7906 -4.36144 80.8518
CA -4.33446 3.65768 76.3648
CA -7.47153 -5.4931 82.8108
CA 13.2668 1.83725 82.7055
CA -4.2937 -15.3883 62.9662
CA 2.9387 19.7072 15.9032
CA -17.3864 -7.01799 82.4912
CA -6.54531 8.85016 78.0989
CA -11.4768 -0.23343 38.7195
CA 0.709073 32.9126 18.2525
CA 4.92529 -24.6991 59.4818
CA -14.0662 -12.4634 91.2234
CA 7.27987 -15.7475 56.0256
CA 8.43857 -19.6421 80.0315
CA -19.3205 3.13927 63.4091
CA -26.5445 10.6409 62.8498
CA 13.5311 -23.1635 85.629
CA -25.5248 -6.8129 50.3668
CA 8.06805 -5.50716 66.361
CA -1.77114 -16.3326 41.978
CA 11.4407 3.0296 61.4135
CA -3.32427 27.5292 17.9781
CA -3.16111 -9.57476 94.9941
CA 2.64118 -6.34138 2.61592
CA -20.8844 6.92584 61.9659
CA -24.8247 -2.46946 56.5907
CA -11.0383 -13.9081 49.9872
CA -4.31477 6.1079 42.0682
CA -23.1259 1.62516 83.854
CA 1.50235 -13.3597 54.5977
CA 12.3268 -10.3532 46.7957
CA 1.16843 3.16674 2.63328
CA 7.6836 -18.8205 49.0418
CA -11.2236 -18.2283 68.615
CA -14.3238 -1.50528 88.2232
CA -4.25273 25.595 19.093
CA 1.86929 30.6718 16.4856
CA -9.55962 3.60369 26.6276
CA -9.22189 2.0241 37.4772
CA -4.23732 -16.7407 82.3564
CA -0.710259 0.992051 72.135
CA 7.64895 -5.90317 55.1251
CA -18.1873 1.00264 74.6308
CA 0.701798 -24.2358 73.54
CA -4.30934 0.731344 63.5584
CA -22.5477 1.56054 65.1354
CA -14.5814 0.705316 86.8244
CA 0.975854 -29.6905 51.5884
CA -18.8442 -7.21957 69.401
CA 15.145 -0.376289 44.4782
CA -2.26428 4.98598 34.2303
CA -9.38411 -18.3163 45.8141
CA -4.87396 -22.36 55.7067
CA 11.3105 -10.1488 60.5101
CA 6.15439 -1.03209 60.1493
CA 15.3889 -3.1268 61.4949
CA 4.65829 8.80502 76.1787
CA 4.43805 -19.0046 60.1864
CA 4.12286 -9.55103 33.8274
CA -19.029 -5.11881 59.644
CA -11.7631 -13.2522 57.9643
CA -22.6148 -10.3671 69.7411
CA 13.5381 -11.3348 45.654
CA 3.89243 -4.5713 56.6799
CA -0.483567 4.75442 43.6409
CA -8.39029 -19.0184 80.0986
CA -1.37316 -1.5429 70.652
CA -11.637 -18.4665 56.2306
CA 12.072 -28.4011 78.0843
CA -3.68153 2.99017 34.5931
CA -9.92732 3.78365 62.0867
CA -16.5752 3.65035 84.7688
CA -10.5708 -7.89958 80.4573
CA 0.048548 8.27761 27.2029
CA 1.21581 -3.7671 91.6875
CA -2.44703 -20.1349 65.7074
CA -23.6148 -4.54078 83.9525
CA 4.59029 -3.01064 65.1186
CA -4.03285 -11.2746 61.3534
CA 1.31295 -27.4281 59.4592
CA 5.26626 5.6482 80.9858
CA 4.4009 -7.10546 45.0598
CA -2.97666 13.7326 61.0807
CA 9.57997 -6.04125 55.6024
CA -0.0376122 -27.8913 47.0432
CA -3.31746 32.9338 14.8809
CA -7.84365 -15.8585 58.8098
CA -1.11248 4.32301 63.9819
CA -1.88013 1.98284 39.6092
CA -6.5794 -6.40153 44.4452
CA -15.8745 1.16864 60.416
CA -6.63531 26.5347 16.2701
CA 16.4358 0.843689 57.2435
CA -13.56 6.17986 53.2428
CA -22.4635 -9.39842 85.7774
CA -13.7359 -12.0429 72.957
CA 13.1067 8.03679 53.6005
CA -4.34249 -15.9057 79.8431
CA 6.52505 -20.434 74.9323
CA 9.93597 -7.69146 66.1427
CA -8.3219 -23.3689 81.2942
CA 0.591487 -8.92353 42.7097
CA -4.31691 28.1217 14.8968
CA -5.00225 11.2302 7.39689
CA -19.0239 -1.91166 50.3779
CA -8.21176 -7.94729 91.157
CA 0.204476 18.4379 14.1023
CA -5.34594 7.01756 4.64055
CA -7.83291 -10.6736 95.4287
CA 15.0713 -5.43323 43.5712
CA -3.00466 -11.5115 95.612
CA 14.352 -4.14426 68.8737
CA 2.23339 -13.2941 39.9618
CA -7.30813 -22.8939 59.7234
CA -23.4683 -7.6293 46.5465
CA -20.8351 -6.26569 46.2487
CA -4.21824 11.0665 43.6897
CA 2.59406 10.6104 19.755
CA 5.79563 15.1135 15.6306
CA 1.07196 -21.48 69.6179
CA -14.6664 1.54305 40.5528
CA -12.7398 -15.2 47.8045
CA 2.8828 -7.55594 76.3244
CA -2.88834 12.1931 82.0456
CA -4.55678 -0.930498 5.37286
CA -1.36169 5.30444 82.7032
CA -0.371961 6.37999 58.2119
CA 0.923632 -10.1715 70.9809
CA -4.17867 8.45459 11.1264
CA 7.23304 -25.8824 58.3326
CA -24.4667 -9.521 70.949
CA 1.09502 -5.05802 87.6608
CA -27.3794 3.55222 84.4221
CA -4.06658 -7.78867 77.1736
CA -7.33222 -11.6006 58.3075
CA -3.29612 -3.11439 71.5293
CA -22.5559 1.16919 79.6547
CA -7.39962 -28.2225 81.6142
CA -4.55518 1.08594 79.5388
CA -7.53529 -13.3543 78.7837
CA 7.00131 -7.97789 52.3583
CA -11.6282 -11.0723 94.003
CA -27.7139 -3.25121 67.547
CA 5.93766 -1.39116 71.0115
CA 11.205 -12.6755 47.418
CA 5.71432 2.44699 64.6364
CA 8.37849 -8.51035 43.4064
CA -7.54009 -16.7727 67.4595
CA -22.8143 0.316153 81.8941
CA -4.60526 -5.69231 64.1676
CA -12.4234 -6.51772 81.1463
CA 2.4753 -17.3136 78.6577
CA 1.72215 -21.2078 75.0378
CA 14.7746 3.44242 65.9793
CA -1.04665 -24.147 61.8445
CA -0.350633 -8.25839 79.865
CA 0.488599 -14.4869 49.9669
CA 2.27614 5.68176 66.8797
CA -1.74298 31.4736 17.9008
CA -0.698947 -9.38172 50.8818
CA 8.57046 -22.6091 60.279
CA -4.08266 10.05 60.8911
CA -10.8463 -7.91973 96.6296
CA 2.97375 -4.07289 63.3575
CA -12.2531 -8.47521 71.5167
CA 8.66471 -17.6477 61.6554
CA -5.26211 4.01686 62.1034
CA 13.3578 0.291472 41.3991
CA -8.36382 27.7671 16.5214
CA 11.3423 2.2847 59.1056
CA 1.2769 13.2686 17.3573
CA -5.43366 -4.37751 90.7062
CA 14.7239 -0.784737 42.6122
CA -12.1091 1.68837 30.1126
CA 12.1641 -3.1478 58.817
CA -11.1159 -14.647 42.2142
CA -5.89625 -0.500743 72.2726
CA 1.35315 -13.3465 67.2141
CA -11.7371 0.230172 53.8372
CA -8.58361 -10.201 45.4228
CA 3.56731 -8.49248 68.1651
CA -12.6576 -6.02856 36.6395
CA -4.89127 -17.7506 78.3723
CA -8.43751 -2.33329 37.591
CA -5.58144 -15.5457 33.431
CA -11.4842 -13.8427 38.8868
CA -3.8235 -23.361 58.8624
CA -2.67194 9.9176 80.182
CA -0.953702 3.48004 41.0669
CA -17.3397 -12.3648 62.3388
CA 6.86112 -5.22776 2.9894
CA 0.831017 14.5554 78.7955
CA -24.0161 -3.42469 66.2727
CA -23.7076 -8.29889 42.9859
CA 6.0305 -15.2579 57.6487
CA 17.0331 -20.7057 88.3954
CA -21.5687 -8.4414 69.9146
CA 9.76935 -4.25622 51.4617
CA -3.5595 36.006 15.3239
CA 2.02117 -20.063 68.2
CA -20.8975 1.03684 55.6372
CA -2.94555 -8.20103 2.82171
CA 2.89054 0.607652 57.0274
CA -22.6244 -14.841 57.3751
CA 3.6218 5.97684 64.2902
CA -19.4597 2.19956 68.6898
CA -13.3096 -14.4767 81.824
CA -14.8612 -2.50569 80.3348
CA -18.9375 -5.15869 82.1931
CA -20.5184 2.16848 59.6566
CA -21.2657 -1.99953 60.4582
CA 10.9616 -24.0159 81.0936
CA -13.6315 -11.3301 40.2832
CA -17.9481 -11.4088 71.4417
CA 6.55355 -5.16677 68.3444
CA -2.01897 -11.8488 50.0803
CA -5.53007 13.6909 57.5241
CA -6.44295 -0.7807 7.49672
CA -0.989884 0.717165 60.5279
CA -6.27277 11.3469 53.1562
CA -20.8345 -8.07206 58.8168
CA -7.34291 -19.7256 70.5487
CA -6.5672 -20.7078 67.3529
CA -11.8013 1.75471 45.0069
CA -7.77935 7.25737 11.4886
CA -3.50975 -14.2225 37.8745
CA 0.483444 6.16454 84.2831
CA -1.42092 -6.42758 7.77206
CA 13.6739 4.7009 40.5183
CA -22.389 3.34688 85.434
CA -5.05087 1.12933 60.7881
CA 1.08172 3.0681 67.0172
CA 5.09199 13.1625 87.5467
CA 1.95785 9.56932 33.1213
CA -19.5195 2.01525 51.6938
CA -5.03232 -4.52275 69.1183
CA 4.79568 18.4999 81.0053
CA -2.88722 2.50914 58.6761
CA 0.874692 -14.0276 52.5873
CA -4.67637 30.2216 15.5677
CA -3.70783 -23.8453 82.2214
CA -9.32934 -17.9633 69.8132
CA -18.6166 -3.17648 70.817
CA -3.40505 -16.0681 94.3971
CA 15.9434 -3.41072 67.6645
CA 6.05505 -15.7606 61.1289
CA -6.15461 -15.8848 40.1153
CA -1.35946 12.383 13.7845
CA -21.1416 22.1261 15.066
CA -1.72918 -5.07221 90.7793
CA 20.9712 0.0483614 48.9581
CA -3.39388 -29.7162 58.4369
CA -7.2698 1.49395 73.8939
CA -10.9081 -2.1886 72.6114
CA 2.50581 -2.82712 61.7501
CA -0.218454 -23.8156 47.8699
CA -4.61 -6.62761 53.4544
CA -0.675405 -28.4533 44.4846
CA -9.00814 -0.591054 77.1228
CA -9.64291 -4.88254 45.3526
CA -13.7271 4.9221 60.7826
CA 5.49926 -11.0349 61.2136
CA -8.69267 -19.1617 63.0815
CA -1.79675 -0.716626 48.2604
