489

CA 16.8053 -1.00397 52.3991
CA 5.18489 -2.83005 40.8677
CA -4.83957 5.61384 2.9221
CA -6.42687 -6.6438 76.2315
CA 1.04995 0.174451 58.4025
CA -19.8166 -9.24222 74.9529
CA -5.52938 -23.0772 85.3897
CA -3.82406 28.7966 19.1884
CA 11.7583 -4.82423 53.5249
CA -7.98486 -13.3699 57.3812
CA -0.732275 -16.6086 83.1667
CA -0.335389 4.19175 1.71001
CA -12.9118 -14.2531 41.8477
CA 4.9292 11.4263 84.1369
CA 2.53417 6.73377 69.2127
CA 17.6351 2.03323 65.6524
CA -12.5409 -13.5353 74.8349
CA 18.6204 -19.0375 82.273
CA 8.73144 -6.50995 40.2286
CA 1.61879 -17.1237 49.8062
CA -7.05847 3.08004 31.3936
CA -7.88393 -18.1963 44.685
CA 14.4855 -10.2293 48.4194
CA 1.88192 17.4535 14.5524
CA 2.56013 -2.03718 4.28792
CA -0.932113 1.11428 85.3489
CA -9.47877 1.57609 82.4077
CA -13.1987 6.82035 49.9195
CA 0.133871 -10.2782 39.9183
CA 3.76173 -1.92134 60.4779
CA -6.41957 40.7702 18.2288
CA -0.0365102 6.68354 65.7964
CA -2.53258 -13.2613 85.3288
CA -21.6046 -6.75002 62.9106
CA 4.81797 -20.7399 59.5656
CA 0.906851 -3.56867 78.8654
CA -8.8567 3.09308 50.4714
CA 0.842712 -10.4438 35.1374
CA 17.0623 -16.7325 85.0672
CA 1.63014 -1.88742 6.87092
CA 1.44724 -1.91745 70.1419
CA -10.4043 -23.3993 58.2591
CA -18.7211 -17.004 60.0718
CA -2.62191 -5.93731 78.2833
CA -15.6864 -14.3246 62.2902
CA 4.1654 -10.0283 78.326
CA -12.6021 4.00914 63.8416
CA -22.844 10.8335 60.6214
CA 3.84583 -29.1241 57.5317
CA 6.17537 4.70534 76.693
CA -0.0246681 8.24389 5.05958
CA -13.2605 -11.6526 46.7778
CA -9.15784 -8.85884 60.5311
CA 3.46683 10.8271 75.7324
CA -6.11731 -5.72361 44.2893
CA -3.6455 -1.60035 87.6003
CA -8.39609 13.9214 17.3246
CA 0.732384 -7.00864 93.2269
CA -8.87814 -10.5197 48.2985
CA -11.1248 19.124 18.3537
CA -3.97537 -8.70503 62.8386
CA -3.40122 32.0832 18.7198
CA -1.46857 28.4067 21.673
CA 6.67119 -2.90515 3.12886
CA 1.00548 -6.94921 65.6354
CA 3.22959 -4.16474 60.7457
CA -6.43579 -21.6295 61.7929
CA 9.85274 -26.7834 81.9584
CA -23.6723 -6.33903 72.1117
CA -5.42238 7.52992 42.5244
CA 3.11687 -3.73729 58.9929
CA 10.1139 -14.696 55.7619
CA -19.2995 2.04555 81.1167
CA -13.4603 -9.76094 38.5426
CA -15.6983 -5.13643 63.4705
CA -6.17623 -13.8337 59.5563
CA -13.0295 -4.38654 75.8808
CA -1.73059 -16.649 65.1843
CA -7.34727 -16.6476 41.7873
CA -12.3652 -13.553 44.5003
CA -7.4725 1.25466 8.70934
CA -24.425 -10.5876 76.5144
CA -16.217 22.397 15.4802
CA -18.9149 -7.12926 42.0893
CA -11.946 4.37101 84.6464
CA -16.4149 -8.37722 79.6909
CA -1.06154 -12.3309 94.6283
CA -1.39961 5.24681 60.9812
CA -15.3716 1.05824 45.4169
CA 4.96584 11.5357 70.2352
CA 2.4994 -6.45705 93.4527
CA -8.46432 34.6572 15.8791
CA 9.38525 9.06274 61.564
CA -2.27461 -1.04196 72.6157
CA -18.2868 -5.41416 71.9182
CA -0.498222 21.2489 19.526
CA -7.89294 -5.90276 95.5763
CA -0.777422 -15.8423 79.3992
CA -25.45 -4.4916 78.4141
CA 11.879 -4.68379 51.5105
CA 1.50544 27.0085 16.9261
CA 5.79501 16.4014 75.9701
CA -10.4989 10.6354 17.4906
CA -12.2325 1.07327 49.7015
CA -8.93449 1.03223 55.0914
CA -14.7398 -13.3192 77.2579
CA -8.34149 -21.3997 79.26
CA -7.85353 -13.2724 40.0522
CA -3.99538 -1.21678 65.3125
CA -15.3071 0.102896 70.6524
CA -22.0646 -4.99081 71.3545
CA 4.30395 -7.96497 43.3024
CA -25.1186 2.88728 66.9249
CA -23.4667 -12.0354 69.6482
CA -19.2809 -8.73861 47.7
CA 12.9721 7.01467 57.8772
CA 6.94043 -10.4063 31.8904
CA 2.08744 -14.5188 27.1996
CA -7.37608 14.2087 75.7258
CA -23.1605 -13.9829 69.3165
CA -11.8926 -16.3781 79.4753
CA -20.779 -2.18659 42.568
CA -2.81715 12.8748 18.2397
CA 12.8257 -5.64898 64.962
CA -13.0981 24.2415 16.9315
CA 1.95782 -13.2285 73.173
CA 10.9172 -17.8893 80.1887
CA -11.0965 -10.5116 41.6461
CA -0.0646623 17.2409 85.4459
CA 17.4259 0.786232 45.2163
CA 8.70944 -22.736 81.621
CA -4.72363 -11.3764 90.3543
CA 13.9787 -18.6069 82.8397
CA -11.4056 -6.56051 65.9912
CA -3.01137 4.02904 60.6517
CA -14.3822 -2.39867 61.828
CA -24.5466 -8.7871 66.655
CA 1.27431 2.29882 63.3723
CA 17.5186 -12.148 62.1245
CA -5.54476 3.50034 87.0712
CA 17.6232 -11.403 55.8147
CA 18.4097 -14.6441 58.6438
CA -8.1744 -14.5505 76.5162
CA -5.8702 -2.76213 50.6788
CA -8.48447 -20.2138 56.8148
CA -8.02137 -0.752505 42.075
CA 9.27506 4.07676 81.2081
CA 11.8482 -6.07447 49.6842
CA -0.503166 11.3097 15.9919
CA -8.36843 -25.6762 57.1746
CA 3.86316 15.8049 75.0657
CA 14.6801 -0.269198 65.18
CA -13.7975 -0.609101 34.1986
CA -19.1933 2.8343 57.9161
CA -1.7504 11.6294 45.4299
CA -21.8331 2.17202 71.9143
CA -7.15259 -21.2774 55.0437
CA 9.61736 -21.6969 80.106
CA -5.02213 3.15373 60.0168
CA -23.5155 -9.18608 62.4444
CA 1.99866 19.3562 12.5985
CA -7.6023 5.6257 44.272
CA -1.74848 -5.97771 98.1846
CA -1.1322 3.60265 3.52836
CA 0.051692 24.0384 16.652
CA 7.69712 -11.1128 65.8537
CA -1.9589 -0.21922 39.5188
CA -0.609713 1.41824 62.5885
CA -23.0366 0.246027 85.4876
CA -4.8589 0.70848 6.81294
CA -18.6305 0.844367 49.5698
CA -9.68151 -21.0622 66.809
CA -9.0406 5.97614 51.9331
CA 0.340039 -8.77012 74.9845
CA -3.20274 10.1556 8.21622
CA 18.5952 -9.9785 58.2438
CA 6.62509 4.15186 64.403
CA 8.2074 4.98342 59.1798
CA -6.57337 22.6071 17.5884
CA 15.0561 -21.7221 92.0858
CA -1.97794 -6.87414 5.92689
CA -19.9753 -8.54708 43.3359
CA -0.0540907 21.1569 15.9506
CA 16.4499 -13.362 58.423
CA -1.53954 1.27853 75.4677
CA -16.2933 -6.11877 70.6543
CA -9.67563 -4.30091 87.2481
CA 0.247172 -16.2354 44.9569
CA 9.92418 -5.77771 59.2311
CA -16.165 -3.57828 61.0476
CA -2.27929 9.44851 32.3853
CA -16.4867 1.36139 74.0675
CA -12.3633 -19.7985 67.6895
CA -3.9096 -3.23201 45.6408
CA -10.9474 -5.18162 67.5817
CA -3.46661 -15.2439 51.5836
CA -3.32111 -14.0462 87.993
CA -4.31865 0.742556 74.3143
CA -8.14202 4.05132 90.4914
CA -8.87766 -13.4323 71.0592
CA -21.9044 0.0482432 60.9863
CA -25.8338 -13.6906 64.5117
CA -25.3489 -5.2596 43.0138
CA -18.5171 -2.66286 59.2024
CA -9.60611 -9.86207 50.734
CA -25.2849 -8.51958 81.5252
CA -2.65227 6.77243 48.2608
CA 12.55 -16.3668 59.7859
CA 2.60396 -0.772764 58.1692
CA -2.92675 -11.783 91.3403
CA 19.5131 -13.6054 59.704
CA -7.41956 -15.4695 49.8857
CA 10.9116 -21.8301 77.6318
CA -7.76624 -18.1385 57.3233
CA 6.02004 -16.954 79.9522
CA -23.3858 -2.20231 78.4363
CA 12.9846 -26.5397 83.3728
CA 1.33601 14.8706 82.4612
CA 9.92273 -4.98547 53.3277
CA -13.2372 -11.143 66.4626
CA 9.60629 -3.36959 63.1141
CA -10.4505 2.03279 78.9278
CA -10.3596 -16.0557 78.3306
CA -8.2204 -0.377281 62.5383
CA 2.79582 4.79935 84.0217
CA -20.9109 -3.99192 63.8645
CA -4.33446 3.65768 76.3648
CA -5.72346 1.88126 52.7683
CA 13.2668 1.83725 82.7055
CA -4.2937 -15.3883 62.9662
CA 2.9387 19.7072 15.9032
CA -4.95421 32.6526 16.6463
CA -6.54531 8.85016 78.0989
CA -11.4768 -0.23343 38.7195
CA 17.2648 -14.9784 64.6954
CA 2.917 -21.1393 48.5773
CA -14.0662 -12.4634 91.2234
CA 7.27987 -15.7475 56.0256
CA 8.43857 -19.6421 80.0315
CA 4.93589 -6.58335 65.1102
CA -26.5445 10.6409 62.8498
CA 13.5311 -23.1635 85.629
CA 8.68582 -4.46768 54.5979
CA -6.1838 -21.3885 43.5729
CA 3.9489 -8.37912 66.3987
CA 11.4407 3.0296 61.4135
CA -3.32427 27.5292 17.9781
CA -3.80964 8.11955 46.8748
CA 2.64118 -6.34138 2.61592
CA 3.74648 -7.56491 70.4919
CA -2.76108 9.11401 13.0077
CA -11.0383 -13.9081 49.9872
CA 16.5279 -1.757 60.7999
CA -14.3464 -17.0192 33.981
CA 1.50235 -13.3597 54.5977
CA -10.7582 -3.29366 76.8906
CA 1.16843 3.16674 2.63328
CA 13.7501 -12.6112 66.5717
CA -21.8161 2.51363 62.1673
CA -12.1905 1.39651 82.7024
CA -4.25273 25.595 19.093
CA 1.86929 30.6718 16.4856
CA 3.35503 -5.47261 5.94704
CA -15.982 -0.476754 79.6955
CA -3.5815 -8.16169 42.0509
CA -0.525747 0.572986 82.3374
CA -4.0891 -13.725 91.1436
CA -25.2923 -1.58281 83.6274
CA 3.24122 -11.9309 87.5615
CA 1.17177 -4.62891 85.7312
CA -22.5477 1.56054 65.1354
CA 11.3329 -15.0201 62.6722
CA -10.9737 -10.0798 49.0418
CA 0.955297 -11.9333 49.1707
CA 15.145 -0.376289 44.4782
CA -2.26428 4.98598 34.2303
CA -17.3597 -6.566 74.0013
CA 2.76023 -10.6783 39.1729
CA -4.35783 14.0748 81.5281
CA 3.50321 -8.02808 87.2672
CA -17.0476 3.39972 72.8844
CA -15.833 -1.13718 58.3543
CA 4.43805 -19.0046 60.1864
CA -10.5228 7.43722 61.6437
CA -10.6212 2.74313 86.79
CA -11.7631 -13.2522 57.9643
CA -17.2008 0.0362072 71.2905
CA 13.5381 -11.3348 45.654
CA -11.3975 -11.7452 48.1051
CA 5.17052 17.6953 87.4554
CA -8.39029 -19.0184 80.0986
CA -20.8225 -10.8858 79.0786
CA -11.637 -18.4665 56.2306
CA -10.4636 -10.0205 38.0332
CA -9.64881 -6.57095 53.4344
CA 4.75446 13.8196 72.7812
CA 1.43973 -11.0508 70.0466
CA -23.4286 -5.77227 44.7939
CA 0.048548 8.27761 27.2029
CA 2.67265 -14.9403 36.4315
CA -2.44703 -20.1349 65.7074
CA -12.364 2.36968 89.8774
CA 4.59029 -3.01064 65.1186
CA -4.03285 -11.2746 61.3534
CA 1.31295 -27.4281 59.4592
CA 11.2642 -13.075 49.4577
CA 4.4009 -7.10546 45.0598
CA -2.97666 13.7326 61.0807
CA 9.57997 -6.04125 55.6024
CA -2.87307 -18.9399 67.6603
CA -3.31746 32.9338 14.8809
CA 4.2584 -18.1418 81.5247
CA -1.35508 -4.50753 60.648
CA -1.88013 1.98284 39.6092
CA -13.2433 -11.1738 87.2476
CA 3.08561 -1.00242 55.5827
CA -6.63531 26.5347 16.2701
CA -9.96842 -12.4777 38.7678
CA -14.3237 -1.04379 84.9258
CA -15.2722 -10.514 83.8885
CA -18.9471 -9.04901 60.8033
CA 3.92191 -7.65177 92.1335
CA -4.34249 -15.9057 79.8431
CA -16.0569 -17.0958 78.1107
CA -14.0906 -14.6603 37.7963
CA -8.3219 -23.3689 81.2942
CA 0.767142 -6.28437 72.2905
CA -5.73475 36.6437 15.8162
CA 9.15505 -4.97325 41.8452
CA -19.0239 -1.91166 50.3779
CA -25.5978 -16.8742 66.9758
CA -0.849075 -30.2574 52.847
CA -5.34594 7.01756 4.64055
CA -7.83291 -10.6736 95.4287
CA 2.92518 -14.0691 25.5637
CA -8.53748 -7.36314 88.567
CA -7.19599 -18.9136 76.6438
CA 1.49904 -5.58189 0.201791
CA -7.30813 -22.8939 59.7234
CA -2.52314 -17.5115 61.975
CA -6.20697 -25.6571 60.652
CA -17.8596 2.23555 60.5176
CA 2.59406 10.6104 19.755
CA 5.79563 15.1135 15.6306
CA 1.07196 -21.48 69.6179
CA 4.74688 -36.4322 49.4184
CA -21.5034 -13.1297 55.6898
CA 2.8828 -7.55594 76.3244
CA -2.88834 12.1931 82.0456
CA -4.55678 -0.930498 5.37286
CA -4.57887 6.03449 35.464
CA -1.21831 -20.1271 74.2418
CA -3.03558 9.12008 42.4873
CA -4.17867 8.45459 11.1264
CA -2.76414 15.0304 16.636
CA 1.92857 -15.4616 29.6709
CA -2.72326 0.0203991 86.5831
CA -2.12325 -0.743285 61.5278
CA -4.06658 -7.78867 77.1736
CA -7.33222 -11.6006 58.3075
CA -27.246 -6.51478 44.3723
CA -22.5559 1.16919 79.6547
CA -7.39962 -28.2225 81.6142
CA -5.60148 -15.8799 45.2823
CA -7.53529 -13.3543 78.7837
CA -25.2625 -3.3102 62.4945
CA 0.390735 4.81754 39.7475
CA 0.618954 -12.02 39.8165
CA -13.7015 1.51026 69.904
CA 3.1656 -17.3464 50.8487
CA 5.71432 2.44699 64.6364
CA 8.37849 -8.51035 43.4064
CA -7.54009 -16.7727 67.4595
CA -10.8618 8.77999 86.8628
CA -4.60526 -5.69231 64.1676
CA -12.4234 -6.51772 81.1463
CA 16.048 -15.4464 86.2228
CA 1.72215 -21.2078 75.0378
CA 3.75597 5.56027 77.7542
CA -1.04665 -24.147 61.8445
CA -0.350633 -8.25839 79.865
CA 0.488599 -14.4869 49.9669
CA -4.97153 -12.1294 57.4363
CA -1.74298 31.4736 17.9008
CA -0.698947 -9.38172 50.8818
CA -9.90848 0.256364 44.582
CA -4.08266 10.05 60.8911
CA -10.8463 -7.91973 96.6296
CA 11.2459 -19.6797 86.2751
CA -1.86846 10.1896 44.3392
CA 8.66471 -17.6477 61.6554
CA -17.7008 -15.2718 39.5715
CA 13.3578 0.291472 41.3991
CA 0.857469 -22.0433 72.5141
CA -19.7111 -2.17364 46.6424
CA 1.2769 13.2686 17.3573
CA -5.43366 -4.37751 90.7062
CA -0.66336 -18.638 89.3819
CA -1.6599 4.89324 36.1478
CA 12.1641 -3.1478 58.817
CA 1.20048 -9.16631 69.5695
CA -6.74029 -19.2651 67.1297
CA -10.5392 4.13807 52.758
CA -11.7371 0.230172 53.8372
CA 3.39157 -32.6169 50.6303
CA 1.32915 -9.73649 48.1299
CA 5.49668 -15.6252 76.8394
CA 17.802 -12.7197 59.4983
CA -9.07255 -6.23024 85.1965
CA -5.58144 -15.5457 33.431
CA -7.89026 -6.91726 79.3698
CA -3.8235 -23.361 58.8624
CA -0.556937 -13.4067 91.316
CA 9.72088 -0.62738 59.8644
CA -17.3397 -12.3648 62.3388
CA 6.86112 -5.22776 2.9894
CA -1.27104 -14.7573 47.1295
CA -24.0161 -3.42469 66.2727
CA 2.49443 -31.4152 53.6485
CA 6.0305 -15.2579 57.6487
CA 17.0331 -20.7057 88.3954
CA -21.5687 -8.4414 69.9146
CA 10.1289 -7.87636 44.2856
CA 2.22174 20.2308 74.6495
CA 18.8257 -20.396 85.2261
CA 13.8945 -1.54925 56.6355
CA 1.19936 -1.35726 73.0356
CA 2.89054 0.607652 57.0274
CA -22.6244 -14.841 57.3751
CA 3.6218 5.97684 64.2902
CA 7.92712 -15.4577 59.2035
CA -1.94204 8.56754 6.13771
CA -6.60274 -8.45409 81.6597
CA 2.36431 -32.6138 48.5817
CA 4.74085 -10.8696 38.3355
CA -0.712531 -4.07799 58.905
CA -3.91012 4.72438 57.7603
CA 12.5167 -5.25322 62.4237
CA -7.19664 3.10302 64.0231
CA 0.216177 -16.0202 51.2729
CA -15.5116 4.8948 74.0226
CA -5.53007 13.6909 57.5241
CA -4.0252 7.50462 39.0509
CA 17.7429 -2.7455 58.9696
CA -6.27277 11.3469 53.1562
CA -9.41389 0.174988 50.7692
CA -4.60713 -13.6463 69.482
CA -4.72684 8.8074 57.188
CA -23.2278 -8.5027 40.5694
CA -7.77935 7.25737 11.4886
CA -3.50975 -14.2225 37.8745
CA -3.41884 12.9078 75.5347
CA -1.22174 -13.7182 43.725
CA 12.7455 10.439 53.2277
CA -22.389 3.34688 85.434
CA -5.05087 1.12933 60.7881
CA 1.08172 3.0681 67.0172
CA 2.98872 -22.5873 72.5163
CA 1.95785 9.56932 33.1213
CA -19.5195 2.01525 51.6938
CA 1.49181 -1.80555 56.1441
CA 4.8747 -12.2144 33.0488
CA -7.56958 -1.00506 1.98555
CA 0.874692 -14.0276 52.5873
CA 0.594903 7.71425 21.8279
CA -1.54504 -18.3664 83.4213
CA -22.593 6.24922 62.1393
CA 1.97387 -23.4773 60.6024
CA 6.35262 -9.54352 76.2459
CA 1.61622 -10.4563 42.0527
CA 14.0211 -2.59475 63.0203
CA -2.04376 -11.1865 95.6249
CA 1.8044 -11.0605 51.8825
CA -21.1416 22.1261 15.066
CA 8.24067 -12.0082 78.7059
CA 20.9712 0.0483614 48.9581
CA -13.9012 -14.203 56.8977
CA -8.20825 -7.77617 96.9667
CA -1.85621 -22.4772 61.8572
CA 2.50581 -2.82712 61.7501
CA 11.1557 -24.9623 82.1746
CA -4.71986 8.64871 78.7222
CA -4.9918 -6.0064 65.9253
CA -9.00814 -0.591054 77.1228
CA -7.18792 -4.50181 86.0692
CA -5.80841 1.3262 40.0485
CA 2.84715 13.6022 74.1989
CA 6.62642 -15.6854 61.2754
CA -1.79675 -0.716626 48.2604
