489

CA 9.34877 -5.0681 74.8282
CA 20.3351 0.323111 54.9983
CA -4.83957 5.61384 2.9221
CA -19.8557 -5.58819 64.425
CA 2.61014 -16.1441 45.977
CA -0.619532 6.27751 59.7215
CA 3.73163 -26.6857 83.3781
CA -1.07618 32.6181 16.2117
CA -13.9631 -15.1729 70.5591
CA 0.37284 8.41346 53.0428
CA -8.55011 4.89623 94.8623
CA -0.335389 4.19175 1.71001
CA -17.7816 -13.8764 78.4949
CA 6.64567 0.663556 55.2064
CA 4.78549 -22.1359 83.9727
CA 5.36314 -18.0131 58.7646
CA -3.78264 12.3965 13.3854
CA -11.9221 -6.51725 52.5705
CA -20.6355 -7.8744 69.0332
CA -0.492604 6.6288 37.0078
CA -9.30416 3.66273 5.54043
CA -7.06462 1.33825 47.4498
CA -3.29437 -28.1617 50.6578
CA -3.28177 -1.42741 50.6639
CA 2.56013 -2.03718 4.28792
CA -11.0805 -1.315 76.7529
CA -17.4876 -2.49829 50.6076
CA 7.41293 -6.2595 49.7467
CA -16.8219 -19.0053 72.2364
CA -11.2241 -23.1499 72.3494
CA -6.41957 40.7702 18.2288
CA -4.49011 6.36482 42.4488
CA -4.33074 -12.2314 72.2235
CA -3.5041 6.81298 37.7296
CA -5.17207 -15.8131 64.726
CA -16.9715 1.57921 52.4225
CA 10.6034 -13.467 62.8369
CA -10.6495 -5.24504 67.9342
CA -11.5701 1.2586 68.2118
CA -1.5128 -1.5978 83.6587
CA 1.44724 -1.91745 70.1419
CA 3.8348 9.46416 23.3148
CA -8.74256 12.4417 59.3491
CA 0.11859 42.0619 16.8365
CA 3.34388 -6.62096 90.812
CA -2.03601 -2.59677 67.9001
CA 7.67388 -10.9949 43.8343
CA -13.0917 -8.86361 36.2702
CA -16.5967 -0.958737 54.0868
CA -1.29088 1.69137 80.7202
CA -12.499 -7.40225 39.2404
CA -13.2605 -11.6526 46.7778
CA -9.2792 6.30668 81.3657
CA -2.27831 1.46047 67.4729
CA -7.04351 -27.66 56.1151
CA 2.25382 11.4822 29.1885
CA -3.0102 -25.4157 55.922
CA -21.4941 -2.42801 51.637
CA -22.7771 -18.0985 71.1454
CA -11.1248 19.124 18.3537
CA -3.97537 -8.70503 62.8386
CA -3.40122 32.0832 18.7198
CA 4.90025 -18.3506 77.1611
CA -16.6519 -18.5934 59.1297
CA -18.9931 9.96333 61.6694
CA -20.0768 -10.2289 74.5991
CA 2.49188 -6.50415 76.9007
CA -2.90779 7.53608 32.0085
CA -0.427732 -8.43813 39.3526
CA -11.0287 -2.23038 44.0104
CA -20.7661 -7.15331 72.4532
CA -5.93419 35.481 19.6043
CA 1.76062 -8.02978 52.6635
CA -13.5908 -3.20813 72.4015
CA -15.8593 2.41247 60.0981
CA -8.82772 -12.9964 67.6761
CA -18.0436 -14.3413 56.4788
CA -10.1913 8.726 98.2707
CA -10.8479 -6.6845 36.6971
CA 5.09482 -8.01204 74.7599
CA -10.1638 -8.19822 54.4296
CA -8.80112 -3.32788 90.274
CA -16.217 22.397 15.4802
CA -1.93515 28.2608 16.9539
CA -11.946 4.37101 84.6464
CA -0.447736 -5.26138 1.55958
CA 2.57751 -4.47973 92.7486
CA 8.85456 5.39472 75.0548
CA -9.43171 -15.384 75.3636
CA -15.7871 -2.71456 78.8211
CA 0.122592 -3.87872 55.7738
CA -8.46432 34.6572 15.8791
CA 1.59019 6.22348 45.0817
CA -13.2064 -21.128 82.7699
CA -28.4178 -17.0589 66.7125
CA -0.498222 21.2489 19.526
CA 1.79439 -12.9397 58.8959
CA 2.93731 10.0604 69.4079
CA 4.42181 -12.3412 40.1108
CA 11.879 -4.68379 51.5105
CA -21.5778 -11.3014 76.46
CA 0.887905 -8.45746 69.916
CA -5.61293 -8.25056 72.6033
CA 0.819336 9.68151 16.1849
CA -14.4835 -1.01751 60.6059
CA 13.5916 -5.57856 76.7487
CA -4.00337 4.08294 58.275
CA -13.6864 0.983319 63.0068
CA -13.4855 0.948825 89.0151
CA 0.629735 -19.2375 68.3377
CA -10.7815 -5.89454 69.942
CA -6.35039 -9.49759 59.492
CA 5.93103 -12.6118 84.0757
CA 1.58883 -2.95789 95.1761
CA -17.1985 -14.229 72.6154
CA 6.97954 -24.995 74.7917
CA 5.22013 -24.5549 63.0558
CA 4.26535 -18.4922 44.195
CA 16.648 -15.6041 45.0663
CA -22.3663 -14.5389 64.3658
CA -16.8399 5.79033 87.3072
CA -9.92663 29.7752 15.39
CA 10.9812 -14.0381 78.6225
CA -10.0619 -11.4826 37.1822
CA -13.0981 24.2415 16.9315
CA -3.20198 1.70194 88.7686
CA 10.9172 -17.8893 80.1887
CA -2.16926 -10.2905 98.2058
CA 9.12347 -6.99924 83.6705
CA 11.848 -15.7207 52.7988
CA -20.7191 -3.18401 72.4083
CA -14.896 -6.30586 75.7509
CA 5.80667 -22.79 44.2181
CA -5.94776 -1.00427 46.1643
CA 10.5678 -1.4555 74.7178
CA 0.0380926 -5.37159 75.5207
CA -1.48468 -12.6205 39.9827
CA -6.54187 -10.1487 66.7066
CA -6.51328 -1.11103 77.6271
CA -16.3593 -20.7773 60.3525
CA -6.17105 -6.69947 96.1925
CA -12.8076 -23.0855 63.6394
CA 4.59603 -10.9419 57.9175
CA 16.6123 -12.6492 61.0102
CA 1.64074 1.08888 59.9226
CA -19.6505 2.49268 55.6814
CA -8.79194 -12.9264 47.6288
CA 8.55119 -12.9401 86.511
CA -10.5803 -22.1342 61.1511
CA -1.00819 -21.0765 44.1776
CA -21.903 -6.48721 43.7119
CA -6.33917 -3.46872 64.8694
CA -13.3908 2.04654 85.3612
CA 18.833 -2.8595 50.1949
CA -9.33076 -7.28162 62.3473
CA 5.88488 -7.23662 84.6862
CA -15.3309 3.53836 89.4353
CA -1.14037 45.2179 16.6758
CA 7.25721 -18.9743 43.954
CA -7.37122 4.04203 54.5764
CA 3.0567 -3.47432 54.079
CA 5.95168 -6.4979 89.2441
CA -15.5685 -1.61975 63.2931
CA -1.51624 -19.717 82.1727
CA 0.051692 24.0384 16.652
CA -9.70561 -3.35485 92.014
CA 13.7614 -9.89479 60.1413
CA -3.67431 2.20964 35.6246
CA -9.06068 -25.3856 59.1487
CA -4.8589 0.70848 6.81294
CA -17.5257 11.2488 59.458
CA 6.05834 -24.6057 68.3933
CA -14.7033 -16.9608 86.8075
CA -2.85253 13.3667 10.9047
CA -12.5748 -9.08241 45.1607
CA 1.0458 -8.84314 46.1851
CA 6.18594 -17.2871 80.1725
CA -15.8091 -19.7981 56.7726
CA -6.57337 22.6071 17.5884
CA 0.930566 -11.6975 51.8332
CA -4.38037 -1.49055 10.255
CA -19.9753 -8.54708 43.3359
CA -0.0540907 21.1569 15.9506
CA -1.54674 3.32862 40.3752
CA 0.231337 -24.4798 64.3234
CA -3.56369 0.0263226 84.7494
CA -15.3804 5.90294 88.7679
CA -19.6586 0.358226 55.781
CA -5.5386 -14.5592 94.094
CA 4.20188 -10.266 55.142
CA 12.1529 -7.52324 53.8387
CA -22.432 -1.83673 74.0851
CA 0.718288 11.4119 14.5607
CA -1.16846 -2.75197 94.805
CA -5.27234 4.06844 53.9215
CA -14.1396 -13.7178 76.6061
CA -8.34357 36.4211 17.0345
CA 1.81153 -9.71587 88.89
CA 0.159181 -16.361 57.5156
CA 18.7198 -10.9088 48.0433
CA 5.136 -16.3861 77.8899
CA -18.3664 0.953968 58.8025
CA -1.2217 -19.5398 45.8879
CA -12.7764 -13.6447 99.3504
CA -10.6779 29.4595 18.3063
CA -13.2649 -11.9471 63.2482
CA -21.7129 -23.2176 53.8715
CA -4.78084 7.50582 34.9062
CA -5.08568 -20.3668 77.1651
CA 8.91306 -2.41793 63.9648
CA -0.835796 -23.5204 66.2734
CA -11.8912 -5.65851 55.8442
CA 7.83188 -2.66452 69.4372
CA 11.8382 -12.5273 55.3753
CA -16.9789 -8.93823 60.277
CA 3.48686 -10.3628 65.2281
CA 1.13077 -19.7134 72.3526
CA 6.01479 -0.66856 66.7022
CA 14.8407 -0.469956 61.8311
CA -2.60092 -17.6317 66.2733
CA -8.63399 -9.1978 57.185
CA -29.7679 -6.8205 85.9231
CA 1.47799 -24.6928 56.1953
CA 13.1703 -16.6896 83.1293
CA -2.95385 5.57567 43.5221
CA -5.3081 -13.1655 33.6318
CA -4.51315 -23.9463 63.5413
CA -3.32271 -12.0355 53.266
CA 8.28292 1.0867 57.7283
CA 15.691 -17.3409 85.009
CA -0.317832 -3.59696 -3.33625
CA -24.609 -8.70518 56.1337
CA 8.17324 -14.0028 52.6338
CA 11.9219 -17.4096 86.0956
CA -0.498392 -9.15568 80.0146
CA 2.917 -21.1393 48.5773
CA -4.72256 -20.6502 62.2231
CA 12.5475 -13.558 53.535
CA 5.73262 5.85623 37.649
CA -8.35935 -4.51987 92.9772
CA 14.3545 -4.8978 61.7332
CA -6.63631 -5.14143 59.3444
CA -21.2946 1.75933 64.8021
CA -12.2373 -8.14338 34.1792
CA -24.1751 -0.758156 65.6711
CA -3.75814 -1.26745 34.5144
CA 15.251 -12.6282 51.8241
CA 20.3787 -3.42775 48.1082
CA 2.64118 -6.34138 2.61592
CA -18.2215 1.87622 86.3191
CA -6.80318 4.02345 67.0101
CA -4.66935 7.75061 66.745
CA 11.2916 1.99091 34.3181
CA 10.8732 -4.66221 59.788
CA -2.01763 -10.2871 43.3128
CA 9.59776 9.35576 59.5
CA 0.108643 0.191691 -0.221531
CA 1.22044 3.14499 63.273
CA -4.1788 -8.48966 68.702
CA 1.2756 -10.4837 94.8912
CA -4.25273 25.595 19.093
CA -8.53509 -10.5319 71.5016
CA 7.47651 -11.8262 35.6034
CA -15.5125 -21.6245 83.094
CA -3.5815 -8.16169 42.0509
CA 5.24749 -14.2265 39.3635
CA -17.9931 -1.62635 81.6459
CA -26.089 -4.8702 78.1234
CA 6.63293 -0.0668471 40.6794
CA -12.0912 -2.98258 41.4139
CA -1.83456 7.4282 55.7767
CA -4.10786 10.6084 58.5505
CA -20.9003 -21.8316 81.2971
CA -21.4966 -9.74735 59.951
CA 5.56958 -19.666 84.3953
CA -2.97512 -6.37221 98.7273
CA -0.56776 9.3115 42.7446
CA -5.32229 0.706312 81.0174
CA 1.28916 -9.07915 56.4158
CA -18.7372 -11.0678 78.3283
CA -28.9196 -15.7935 64.8237
CA -1.68679 -11.2063 96.2953
CA -21.8082 -11.3362 60.8063
CA -3.97156 -13.9586 45.2053
CA -4.02521 1.20517 49.0642
CA -1.17242 -20.0782 67.8028
CA -1.36229 -11.7164 41.5578
CA 13.5381 -11.3348 45.654
CA -2.52389 -20.6429 74.2267
CA -0.242388 -7.93592 75.4899
CA 8.5674 -11.9423 53.4378
CA -4.0631 10.3403 13.4494
CA -8.73217 1.37139 72.7696
CA 1.92788 -24.3634 66.0511
CA 0.762197 -10.2257 81.4278
CA 4.98513 7.34122 73.2091
CA -0.166567 -12.5145 57.0413
CA -4.10979 -19.4163 48.1471
CA 0.048548 8.27761 27.2029
CA -4.99701 -0.368845 55.7765
CA -20.2039 -21.1722 54.0708
CA -6.44448 14.7185 10.4275
CA -6.5549 -17.4309 63.9457
CA 7.79398 -8.28169 52.9962
CA 5.14631 -12.6805 57.1602
CA 12.5155 -6.31333 83.0906
CA -2.34158 -2.13684 92.4282
CA -6.79852 3.58399 69.6587
CA 7.93745 -0.448187 70.7725
CA 4.74259 -1.20781 87.8663
CA -3.31746 32.9338 14.8809
CA 3.26629 -7.099 56.912
CA -1.35508 -4.50753 60.648
CA 1.29169 0.870819 39.058
CA -11.7676 -15.8921 79.8382
CA -23.0425 -9.34139 77.881
CA -6.63531 26.5347 16.2701
CA 7.66041 -11.033 52.065
CA -22.284 -20.2826 72.7281
CA 5.44848 -28.1496 52.937
CA -9.41129 -4.97812 57.0901
CA 1.03301 -7.01601 39.8715
CA -14.8551 -23.4199 68.1424
CA -16.7458 -23.4766 81.3889
CA -6.42609 2.42123 90.5007
CA 5.15751 0.0385249 35.9995
CA -8.0635 -4.4114 83.0716
CA -5.73475 36.6437 15.8162
CA -15.3965 -19.4046 85.0656
CA -2.04396 41.4148 19.3135
CA -6.97872 -3.07848 87.6138
CA 8.64459 -6.78184 79.8884
CA -5.34594 7.01756 4.64055
CA -1.58291 -14.4473 31.3854
CA 0.500849 7.91425 68.0784
CA -16.0747 -5.29439 79.3211
CA -7.08127 -22.4633 55.074
CA 1.49904 -5.58189 0.201791
CA 3.81214 9.10408 72.8099
CA -0.496019 -14.8975 56.2194
CA -15.9515 -24.4085 62.4165
CA 12.551 -10.2165 51.3468
CA 2.59406 10.6104 19.755
CA 5.79563 15.1135 15.6306
CA 18.3003 -1.39705 54.1119
CA -6.64951 20.4537 20.6636
CA -22.6736 2.74261 76.0298
CA 8.67571 2.19532 36.6738
CA 8.54814 1.58326 77.7086
CA -5.16641 -1.86488 43.0092
CA 8.09837 -4.8516 52.8802
CA -0.0568651 -30.6352 52.9018
CA -22.584 -7.81364 62.2215
CA -20.3462 -8.88415 48.9756
CA -2.76414 15.0304 16.636
CA 5.11682 2.5453 34.8855
CA 8.73469 -11.8478 62.2453
CA 5.76072 8.26687 67.963
CA -21.3005 -2.11239 78.3207
CA 8.1781 -3.23851 71.1434
CA -0.0994357 -28.5295 52.5585
CA 21.363 -1.50027 52.9481
CA -20.2435 -17.4314 61.5354
CA -10.8571 -22.2978 68.7573
CA 12.7577 -7.45127 61.5333
CA 17.0536 -6.74342 51.6107
CA 0.390735 4.81754 39.7475
CA -1.0631 -8.77476 58.5593
CA 7.74457 -2.15892 37.601
CA 3.1656 -17.3464 50.8487
CA -15.3229 -24.9185 82.6897
CA -1.27206 -9.09995 2.52534
CA -21.2991 -16.8104 65.8946
CA -10.8618 8.77999 86.8628
CA -20.0331 6.75919 59.4845
CA 1.9016 11.0707 65.1378
CA -0.540498 4.7669 78.0467
CA -16.2799 -9.16919 77.5412
CA -19.4389 -18.6779 80.7517
CA -15.4301 -10.7709 48.4359
CA -0.780489 1.82662 69.5818
CA 3.23084 -4.46541 89.9049
CA -20.6906 0.787359 78.5728
CA 3.16702 -6.6702 49.5006
CA -1.5344 -24.1061 52.9583
CA -22.9093 -12.5288 59.7049
CA -5.94082 -7.23663 59.8369
CA -2.08388 12.146 2.88955
CA 2.6096 0.447833 55.534
CA -3.47967 -33.6248 53.9604
CA 10.905 -2.79251 60.2644
CA -21.6932 -2.08102 65.1467
CA -14.974 1.34916 38.1734
CA 3.47382 -20.4649 73.8231
CA -6.32293 -23.5624 78.6497
CA 1.2769 13.2686 17.3573
CA 8.16983 -19.8007 78.1739
CA -15.5819 -17.9896 76.6177
CA -9.65773 -10.3719 101.637
CA -8.81724 -6.36985 92.0052
CA -0.59161 10.1495 8.03875
CA -6.74029 -19.2651 67.1297
CA -10.9574 -3.81617 87.4391
CA -17.0667 24.3525 16.8927
CA 5.78262 -16.3461 76.0834
CA 9.69608 -11.3905 86.4915
CA -3.22642 -3.79971 61.6509
CA -25.097 -14.3888 66.7174
CA -7.67326 -14.9209 49.29
CA 1.14432 -16.819 44.8159
CA 5.24347 -13.032 49.1031
CA -12.6541 -16.5262 60.6431
CA -0.556937 -13.4067 91.316
CA -7.65148 -6.62281 89.2795
CA 14.1873 -14.2482 83.0033
CA -19.2445 1.55391 50.9362
CA -6.41212 -1.79423 53.3891
CA -3.07201 0.232544 82.4979
CA -4.87989 -5.57169 74.6256
CA -6.69059 1.1893 11.8249
CA -5.32484 -1.13467 75.8262
CA -1.64883 -9.54906 86.9824
CA 16.9904 1.56936 58.6468
CA 6.32769 -17.0023 86.7804
CA 6.0011 -10.3653 72.8909
CA 12.5651 -11.5976 57.3436
CA -10.7674 -23.4409 59.7606
CA -7.93931 -11.4698 49.9021
CA -22.6244 -14.841 57.3751
CA 3.6218 5.97684 64.2902
CA 3.54506 -10.8505 42.6985
CA -11.3716 -26.9887 79.7649
CA -11.3017 -17.501 75.3776
CA 8.06533 9.04817 64.2414
CA -17.9174 7.8152 60.9138
CA -8.46366 -15.0466 91.7877
CA 0.165919 -7.4249 3.80907
CA -4.61056 -22.604 83.0747
CA -4.18086 -7.33639 74.927
CA 13.7587 -4.04156 53.7574
CA -24.8022 -17.6665 61.5973
CA -3.92174 4.77976 71.6097
CA 0.546895 -11.8902 90.4534
CA -2.97426 10.1259 4.2212
CA -19.5397 -0.91604 82.2697
CA -23.3945 -1.53018 62.4325
CA 2.60034 -16.5291 56.1205
CA 8.4885 4.68295 40.3594
CA 5.52695 -11.2475 62.0331
CA -11.8591 -25.0389 80.635
CA -3.50975 -14.2225 37.8745
CA -4.99998 -16.6318 56.63
CA -8.31017 2.04528 69.1755
CA -5.92183 -13.422 65.7307
CA -5.68903 -4.70621 42.7328
CA 8.54207 -3.30543 65.7156
CA -5.86837 -13.9181 46.44
CA -20.1272 -6.71879 53.6059
CA -24.1882 -6.7872 70.5651
CA -10.6125 -13.9129 95.7867
CA -1.01335 24.3547 20.2408
CA -13.7654 -22.1334 79.3033
CA 8.66236 -11.6944 59.276
CA 0.874692 -14.0276 52.5873
CA 3.92654 -2.11548 65.6123
CA -8.7996 5.09832 66.8485
CA 7.16073 -0.457317 57.403
CA -33.7931 -6.95914 83.6728
CA -7.57122 32.0547 17.108
CA -9.8466 -23.7927 54.9065
CA 7.16654 -8.99224 47.4519
CA 3.08295 -0.836945 69.916
CA -4.79328 0.458693 44.5026
CA -26.373 -7.71035 83.3692
CA -1.32921 -25.9256 50.9748
CA 2.74255 16.4582 78.8881
CA 4.38794 -7.72833 79.7686
CA -11.9752 -3.65863 69.5487
CA -0.382687 7.0683 54.0983
CA -0.813819 16.138 14.1703
CA -25.7256 -2.5539 81.3883
CA -12.5805 -3.08576 39.443
CA 0.0185721 -24.1335 62.284
CA -10.0782 -25.405 61.2686
CA -16.1385 -2.19577 84.0694
CA -22.1338 -19.451 50.0823
CA 2.84715 13.6022 74.1989
CA -11.8344 -6.72021 86.7266
CA -17.895 -0.0125821 62.8558
