489

CA -9.65053 -14.0136 38.0364
CA -1.8911 12.9583 8.63132
CA 6.11148 44.1174 19.2542
CA -20.1917 -4.64926 64.7581
CA 0.95801 -10.1088 40.1616
CA 11.1487 -3.59151 62.296
CA -0.662855 -22.9528 45.0722
CA -1.07618 32.6181 16.2117
CA -4.04129 -4.25919 72.1127
CA -16.8081 -19.1395 74.9557
CA -20.0566 -16.2118 68.906
CA -0.335389 4.19175 1.71001
CA 16.8317 -16.1364 47.5996
CA -8.94704 -19.3203 51.3572
CA -8.5325 -2.27115 51.8443
CA 1.25703 -19.6664 63.3725
CA -3.78264 12.3965 13.3854
CA -0.909374 -20.8662 63.4752
CA 16.1751 -9.58354 64.3947
CA -2.46894 15.9383 2.27752
CA 11.8594 3.65865 76.9587
CA -5.62038 2.50224 40.2662
CA 14.5656 2.4994 75.3367
CA 3.86182 2.72031 61.1031
CA 2.56013 -2.03718 4.28792
CA -12.1961 -1.98162 86.1407
CA 18.5222 -5.45261 50.7092
CA -1.66813 14.881 17.1504
CA 8.75188 3.36825 71.4432
CA 0.10557 -1.97856 3.93817
CA -20.9997 -14.2331 46.8373
CA -9.36882 -11.5716 69.3957
CA 3.84655 -7.19764 1.52934
CA -3.5041 6.81298 37.7296
CA -4.8293 -17.9215 71.949
CA -12.8966 -10.3364 67.4054
CA 17.0598 -9.79308 55.2121
CA -6.25842 -25.5917 70.9978
CA -23.9017 -17.0363 79.341
CA -6.69559 1.32426 60.1086
CA 5.54611 -17.2147 56.8248
CA 3.8348 9.46416 23.3148
CA -8.74256 12.4417 59.3491
CA 15.6863 -8.87922 46.9128
CA -18.6235 -5.48141 48.3101
CA -8.00445 3.60307 57.3806
CA 7.67388 -10.9949 43.8343
CA -21.5575 -23.6104 85.7247
CA -3.00741 -16.0826 71.2449
CA 10.7573 -10.3254 49.7248
CA 4.2536 -3.83302 72.2499
CA 5.90224 -8.07931 86.4206
CA 6.31071 -9.27922 84.7234
CA -28.4782 -14.9709 44.2844
CA 3.06601 -27.1922 55.4076
CA 12.1978 -3.30182 93.1674
CA -22.2276 2.33855 48.5024
CA -14.8164 -1.20052 63.1536
CA -3.2056 -12.0024 73.2764
CA -11.1248 19.124 18.3537
CA 3.95041 -25.2112 63.136
CA -1.55485 34.3656 15.2999
CA -24.4825 -1.02045 89.1435
CA -3.48093 -19.5949 75.8607
CA -6.52136 -24.222 50.0963
CA -19.3219 -0.889539 49.5029
CA -1.08425 -29.4662 55.5002
CA -2.90779 7.53608 32.0085
CA -26.5275 -14.5318 43.5166
CA -8.3527 30.5983 18.1682
CA -3.35666 -1.82811 2.64846
CA -5.93419 35.481 19.6043
CA -4.41386 13.7353 0.642861
CA 3.47489 -19.6026 86.6795
CA -15.8593 2.41247 60.0981
CA -20.08 -19.5521 78.9669
CA -20.3384 -15.1829 60.5076
CA -9.86006 -5.62507 35.3801
CA -9.66984 -2.98532 44.9521
CA -13.4662 -21.4085 86.0943
CA -2.94036 -20.671 50.009
CA -4.36245 -3.30494 56.5999
CA -16.217 22.397 15.4802
CA 2.41654 9.99138 30.0841
CA -20.476 -23.7389 81.6362
CA -0.447736 -5.26138 1.55958
CA 2.57751 -4.47973 92.7486
CA 8.85456 5.39472 75.0548
CA -2.75237 -6.18508 43.0038
CA -4.54693 4.51765 69.4693
CA -17.3152 3.68463 76.371
CA -8.46432 34.6572 15.8791
CA -23.283 -2.71576 51.4388
CA -16.4455 -12.154 45.2835
CA -0.837494 1.1114 39.0351
CA -0.498222 21.2489 19.526
CA 3.78472 -20.9358 55.3594
CA 12.6231 -7.48031 60.8801
CA -18.0257 0.118585 72.6005
CA -3.02508 -1.68192 90.2902
CA -3.62845 -0.223296 68.1296
CA 12.0314 3.5796 72.0657
CA -11.7172 -10.2888 45.331
CA -1.0517 -9.2981 38.9651
CA -19.2258 -18.9392 84.1769
CA 2.75396 -13.3846 90.2565
CA -9.57555 -10.4485 38.5796
CA 0.857641 -32.9338 52.795
CA 3.53402 0.891122 35.9636
CA 9.9165 -2.37976 56.008
CA -10.7815 -5.89454 69.942
CA -13.6208 -23.3957 52.8409
CA -8.2453 -1.04192 102.805
CA -17.8657 2.38621 46.7994
CA -17.1985 -14.229 72.6154
CA -24.6306 -6.25508 66.3
CA -0.307449 10.6132 4.96968
CA 4.26535 -18.4922 44.195
CA -2.96432 18.0811 3.52227
CA 10.8521 -2.17682 68.6025
CA 0.016241 -6.43205 53.8738
CA -9.92663 29.7752 15.39
CA 8.0706 -14.1265 80.6843
CA -9.79818 -1.81776 38.7222
CA -13.0981 24.2415 16.9315
CA 17.6617 -12.8516 48.0999
CA 6.31462 -14.378 36.5431
CA -21.18 1.81971 80.6485
CA -6.4839 0.111548 40.6476
CA 7.58037 -19.4928 81.5783
CA -25.5797 -0.132201 80.1496
CA 4.58216 6.81851 61.8591
CA 1.68351 43.8292 18.9253
CA -25.7097 -10.9097 61.3404
CA 15.3227 -13.8627 60.0174
CA 5.11108 -13.2713 86.7793
CA -5.79765 -12.994 56.497
CA 2.98156 -25.7405 52.6013
CA -4.04078 2.55931 69.0263
CA 2.00204 -3.34636 45.9457
CA 13.8609 -15.6323 86.6107
CA 3.86157 -4.35017 63.7425
CA -11.8493 -4.60885 64.3951
CA -7.01756 -26.7116 76.5231
CA -26.287 -20.8469 57.9766
CA 2.17237 -1.78179 67.54
CA -2.14958 12.1351 59.1558
CA 2.22876 -16.6869 42.6733
CA -17.2757 0.0179577 75.43
CA 5.492 -2.29204 72.6348
CA -11.2914 -2.76276 79.101
CA -10.2899 -19.4754 64.4051
CA -6.90863 -4.80073 92.5861
CA -3.54995 -16.7949 69.6345
CA -22.4295 0.832493 87.8738
CA -4.95443 -1.42134 94.723
CA -21.7045 -24.2771 87.4181
CA -1.14037 45.2179 16.6758
CA -17.1681 -4.4846 53.9968
CA -3.90547 -8.90561 40.8969
CA 3.0567 -3.47432 54.079
CA 8.99179 7.91205 72.1381
CA -5.70697 -22.2768 74.3117
CA -22.3051 -10.511 82.8444
CA 0.42338 -17.7081 47.0408
CA -18.8072 -15.2777 63.6943
CA 0.722511 -9.72297 62.7475
CA -10.067 0.663165 76.5799
CA -10.7696 -3.57695 82.918
CA -17.8356 -16.0523 48.1255
CA -2.62585 1.06213 7.32629
CA -0.11854 -0.972106 43.4284
CA -6.01162 -9.83507 83.8887
CA -9.88427 -14.4278 75.1126
CA -3.23477 -13.4109 50.0467
CA 6.72066 -11.6801 97.0604
CA 0.298638 37.7458 18.7308
CA 0.404662 -17.5615 67.7823
CA -2.62834 43.468 15.4718
CA -0.0700032 -0.158203 45.9819
CA -0.182399 -5.99771 100.052
CA 5.86878 -19.6721 51.9075
CA -0.0540907 21.1569 15.9506
CA 6.66466 -2.45671 91.6226
CA -5.16707 10.6071 54.1884
CA -3.43115 7.99259 2.98431
CA -3.7515 -24.8049 77.2005
CA 1.33892 -8.58522 82.7847
CA -5.56978 -15.834 69.0358
CA -26.1152 -9.94571 74.1036
CA 4.56314 -15.6183 82.7656
CA -4.23827 -2.04325 100.852
CA -8.93057 -21.1 58.942
CA 2.39722 -3.89497 94.533
CA -2.37316 3.75297 48.7858
CA -14.7863 -23.1907 64.1429
CA -5.64232 9.47578 43.3323
CA 4.20441 -18.8504 37.1111
CA -21.2705 -11.5533 59.0889
CA 4.07662 -3.6731 48.8853
CA -11.3865 3.32602 64.9901
CA -4.44435 -3.27224 60.1755
CA -16.6481 -5.77458 59.9537
CA -13.635 -8.91612 52.7248
CA -10.6779 29.4595 18.3063
CA -8.0078 1.17695 54.2133
CA 3.71099 -13.876 76.1538
CA -1.22226 -8.51051 42.9029
CA -4.16942 -7.15101 103.485
CA 8.91306 -2.41793 63.9648
CA 3.54354 -22.3871 56.7176
CA -24.5065 -21.4768 81.2967
CA -6.42881 -20.0398 77.4554
CA 11.8382 -12.5273 55.3753
CA 3.21095 -11.9446 62.3946
CA -1.71779 -0.185662 48.4151
CA -15.9299 -4.22917 87.302
CA 6.87554 3.13959 61.1157
CA 11.4896 -15.1934 45.2981
CA -21.2526 -4.92154 51.9889
CA -11.103 -7.96138 85.452
CA -13.5676 -1.15065 77.5304
CA -1.0674 -21.7972 50.3817
CA -20.0977 -5.73415 66.7655
CA -21.392 -23.4363 79.3526
CA -17.245 0.649869 56.6595
CA -12.8646 0.78379 54.1217
CA -16.1401 -19.4219 72.6439
CA -4.46742 -10.6164 87.7502
CA -9.28063 -4.43868 38.1676
CA -23.2938 -20.811 63.6823
CA -6.75384 -1.88662 86.0701
CA -0.113116 -28.2669 50.7642
CA 11.9219 -17.4096 86.0956
CA -24.8102 -9.4195 55.3206
CA -16.6899 -18.931 69.3503
CA -7.71498 1.59401 57.5819
CA -18.8026 -9.52295 75.7642
CA -12.987 -20.3673 65.0995
CA -0.591015 -22.4281 64.9871
CA 23.3427 -11.4017 51.6022
CA -24.4395 -8.7709 79.2676
CA -11.9216 -3.34537 61.3743
CA -1.85547 -24.3926 76.5505
CA -8.14644 4.16404 32.2677
CA 3.02461 -19.2446 77.8238
CA -5.85067 -11.5083 95.4026
CA -25.7935 -9.24406 53.5615
CA 1.56394 -10.5857 98.3713
CA -11.9501 -17.5991 46.3875
CA -8.07351 -20.5273 78.4267
CA -4.10327 -7.00536 72.4803
CA -9.39476 2.38495 69.7604
CA 10.8732 -4.66221 59.788
CA -2.01763 -10.2871 43.3128
CA 16.5219 -8.48149 60.3705
CA 0.108643 0.191691 -0.221531
CA 1.22044 3.14499 63.273
CA 12.3175 -10.333 52.5509
CA 1.2756 -10.4837 94.8912
CA -4.25273 25.595 19.093
CA -3.7158 -7.84054 74.4894
CA -9.63122 -21.5951 50.9746
CA -10.3078 -6.0653 48.8429
CA -2.78017 -7.41729 38.7273
CA -0.137075 -3.87808 98.9881
CA -11.5125 -8.19777 52.1784
CA -26.089 -4.8702 78.1234
CA -22.2944 -12.179 44.2026
CA 1.31814 4.65969 59.6636
CA -0.968703 -9.1518 48.6096
CA -4.10786 10.6084 58.5505
CA -20.9003 -21.8316 81.2971
CA -21.4565 -9.05114 43.6743
CA -24.876 -8.51977 82.3576
CA 0.0422928 -24.4166 77.1159
CA 1.63332 -2.05503 50.9813
CA -7.07957 -13.7459 93.3896
CA 1.11289 -11.6476 96.7745
CA -18.7372 -11.0678 78.3283
CA -24.326 -8.73053 58.3871
CA 6.16401 -21.8598 51.5939
CA -2.56735 -14.9364 57.2113
CA -12.2604 -2.58397 38.6477
CA -0.410612 4.02999 38.2096
CA -4.69627 46.1432 15.6685
CA 5.22403 -14.1919 81.4172
CA -7.99822 10.3541 51.8826
CA -0.398492 -13.9653 94.3001
CA 8.11621 -4.37753 83.7574
CA -4.1555 0.00963742 60.3535
CA 0.298679 -10.5508 7.06853
CA -5.27167 -6.75408 92.2706
CA -11.9776 -16.5513 62.1667
CA -23.9803 -19.4541 78.4799
CA -6.55094 -10.7082 81.645
CA 6.09514 -30.8524 61.687
CA -2.17993 -10.5769 53.7181
CA 0.048548 8.27761 27.2029
CA -10.5141 -12.8443 46.3945
CA 14.8333 -17.0541 49.9642
CA 14.1889 -0.821506 66.4606
CA 13.7882 -3.84977 54.4845
CA -1.96965 4.92386 46.4218
CA -12.4434 -3.32225 84.5241
CA -21.3729 -21.9342 62.6954
CA -3.36424 27.7778 19.7637
CA -6.79852 3.58399 69.6587
CA 7.88213 -16.6005 79.0139
CA 19.939 3.33745 55.507
CA -3.31746 32.9338 14.8809
CA -12.8636 -26.1562 78.806
CA -1.2436 8.37802 2.91674
CA 9.42889 -3.88191 53.7882
CA 1.37595 -5.74315 57.293
CA -12.4698 -6.94543 42.2714
CA -4.06215 -7.08348 70.2533
CA -5.83053 7.44937 43.9621
CA -8.0855 -24.781 75.3426
CA 0.0328371 -3.28131 58.0018
CA -9.33499 -11.9792 60.2314
CA -4.76214 -16.0357 81.5865
CA 4.89894 -18.0328 68.6133
CA -4.63864 -9.24579 52.4155
CA -1.90079 -10.1081 35.8527
CA -14.8671 -2.42358 76.8652
CA -1.11226 10.4539 68.7759
CA -5.73475 36.6437 15.8162
CA 0.190178 -15.4273 38.3892
CA 1.55524 -8.96869 87.1306
CA -19.8916 0.56206 66.6893
CA -12.6184 -6.62672 61.258
CA -15.0135 -7.23511 68.5295
CA -20.7117 -20.1475 74.0596
CA -14.762 -23.9887 85.5291
CA -13.9689 0.699718 73.9736
CA -7.08127 -22.4633 55.074
CA 1.49904 -5.58189 0.201791
CA 3.81214 9.10408 72.8099
CA 0.75857 6.53879 3.30236
CA -2.38537 0.793508 37.4603
CA -3.83819 -14.6393 39.9944
CA 2.59406 10.6104 19.755
CA 8.73569 -13.5406 45.244
CA 18.3003 -1.39705 54.1119
CA 2.4923 8.62207 71.5789
CA 5.12377 -24.929 57.7345
CA 10.2719 -12.9259 65.2162
CA 1.64254 -4.38089 62.7658
CA -3.5755 -4.9209 91.4623
CA -7.70882 1.50717 77.4863
CA 21.4196 -7.80707 55.3759
CA -22.584 -7.81364 62.2215
CA -7.81848 -16.376 47.9047
CA -14.4275 -22.1553 68.7983
CA -6.81274 -11.9183 57.7435
CA -27.5913 -12.2199 72.038
CA -16.3528 0.120988 61.5934
CA -1.65226 -0.666598 70.9771
CA -18.4319 -26.2496 85.9919
CA 8.34784 -11.5948 59.3333
CA 3.16831 -9.62152 62.9556
CA 4.3092 -19.3038 66.4797
CA -21.2625 -20.3855 69.9088
CA -4.33774 -4.54731 99.7219
CA -8.89436 6.03822 54.1857
CA -2.46948 -9.43081 74.0664
CA 3.06907 -7.83876 82.3043
CA -5.85298 -7.2417 51.4462
CA -19.8932 -8.2498 46.3122
CA -6.02644 -5.76864 104.408
CA -1.27206 -9.09995 2.52534
CA 13.9175 -7.2013 50.85
CA 6.55319 -4.57623 89.2914
CA -10.9906 -6.70774 37.835
CA -2.1767 14.5025 3.6058
CA 21.3857 -15.844 51.9878
CA -8.43775 -18.0956 49.6736
CA 3.00754 -4.55144 73.7075
CA -2.14246 -19.4033 64.7531
CA -0.780489 1.82662 69.5818
CA -14.6629 -17.0303 73.1372
CA -20.4855 1.84085 78.3211
CA -1.75631 -13.0317 95.034
CA -5.05785 6.95881 67.6854
CA 5.02683 -16.2439 40.5927
CA -9.08859 -8.54724 96.6545
CA -0.779762 6.72633 0.888496
CA 10.668 1.64864 73.7118
CA -11.7951 28.1174 19.0074
CA 9.37221 1.17272 68.3896
CA -21.8109 0.0381465 80.8529
CA -2.53486 7.09358 58.4385
CA 9.41756 -10.5075 41.4721
CA -13.035 -14.9186 62.9128
CA 1.2769 13.2686 17.3573
CA -17.6683 -4.35778 74.6764
CA 2.10775 -1.91117 54.8368
CA -9.65773 -10.3719 101.637
CA 1.36852 -19.0442 67.1583
CA -2.65066 -2.87073 34.8381
CA -18.4575 -19.5516 58.7225
CA -10.009 -18.6115 61.1831
CA -6.53886 39.6226 15.9168
CA -16.6849 -12.9803 71.2629
CA -2.22463 -25.4281 47.6234
CA -3.22642 -3.79971 61.6509
CA -20.9121 -25.4753 84.2108
CA -4.2969 -0.78315 38.8985
CA -10.378 7.3331 55.573
CA -15.2689 -10.6908 66.9285
CA 12.9206 -10.8633 64.1585
CA 4.73775 -18.6083 76.9035
CA -23.9621 -5.95663 57.2116
CA -17.2411 -21.3003 83.9982
CA -19.2445 1.55391 50.9362
CA 7.34783 -14.4853 87.6906
CA 7.44236 -23.9861 60.4032
CA -1.92688 0.656334 46.3587
CA 0.355596 -15.7597 48.5432
CA -21.3012 -1.11289 61.4063
CA -1.96793 -12.416 66.3929
CA 13.6836 -15.163 44.6469
CA -21.0532 -7.63129 74.9375
CA 1.73218 31.6965 15.5858
CA -6.32271 -3.97439 80.2934
CA -19.5562 -23.5403 88.2571
CA -7.93931 -11.4698 49.9021
CA -19.5574 -3.21868 84.933
CA -22.9585 -14.5853 62.4544
CA -11.5966 -20.6647 60.9527
CA -11.4438 -11.1647 78.3988
CA 7.03312 -0.707271 90.9532
CA -15.9923 -6.02957 50.9914
CA -6.06585 -24.8035 76.7182
CA 1.60282 -22.5898 46.0996
CA -12.8098 -4.88007 42.6698
CA 10.5445 -14.1203 39.0236
CA -18.1271 -0.995952 56.8991
CA -2.95762 1.84269 92.6243
CA -6.82274 -9.42332 67.5711
CA 2.99928 0.745892 94.7821
CA -17.7683 -23.4223 67.7795
CA -3.80917 -5.57359 67.8132
CA 12.7851 -13.0898 62.1809
CA -9.2643 -6.95538 52.4506
CA -11.9239 -5.34179 74.6709
CA 0.202569 -10.145 85.8663
CA 3.07209 -5.55971 66.57
CA -11.8591 -25.0389 80.635
CA -21.2218 -1.64469 81.4912
CA -12.5509 32.2327 14.6059
CA -11.4999 27.6272 15.1208
CA -1.4838 4.50313 60.7447
CA 2.22079 41.6763 17.4905
CA -17.3682 -11.9832 43.3694
CA 10.5455 -14.9746 42.553
CA -23.5055 -23.8956 59.4834
CA -6.99738 -2.304 80.739
CA -7.46566 6.735 33.7313
CA 6.62353 -3.89104 81.1313
CA 3.02874 -11.0347 96.807
CA -17.2967 -23.1532 77.7444
CA -11.941 -15.2247 48.964
CA -10.5401 0.573954 67.2162
CA -2.68206 -9.59248 97.1421
CA -8.24232 30.8926 21.2922
CA 0.605817 7.62186 58.5032
CA -5.78385 -6.04473 100.977
CA -7.83624 3.91641 36.3567
CA 7.16654 -8.99224 47.4519
CA -4.09407 1.76536 57.7715
CA -0.342382 -10.0615 73.7638
CA -8.70816 26.0859 19.4726
CA -22.925 -10.8561 79.2423
CA -18.5629 -10.833 49.7222
CA 1.84459 -18.8437 43.4881
CA -12.7407 -7.1386 67.988
CA -10.8446 -3.87321 75.1427
CA -0.813819 16.138 14.1703
CA -2.81413 -1.9669 -3.11225
CA -8.34409 -4.91501 60.8301
CA 6.55935 -20.9946 56.5298
CA 2.06103 -20.8625 86.6605
CA 5.41465 -28.3857 60.4749
CA 6.48321 -22.2382 62.1418
CA -9.57866 -14.8737 59.2727
CA 9.93637 -16.8703 41.8583
CA -18.4189 -9.4665 40.6755
