489

CA -25.2079 4.42521 63.7626
CA -21.2244 -0.86488 54.2288
CA -11.6232 -7.7342 45.0656
CA 8.50444 15.4246 66.7724
CA -0.255349 27.6677 27.2508
CA 5.43497 -18.0699 62.453
CA -24.8653 21.1535 42.1366
CA -23.4155 3.31145 60.2293
CA -4.95082 -6.9824 73.9146
CA -10.0114 -1.08173 33.3838
CA -7.54115 -14.5225 87.0275
CA -29.9874 5.92038 62.7341
CA 14.1903 22.9512 42.3702
CA 10.6813 11.3044 50.0825
CA -11.3416 -28.8083 44.8255
CA -21.277 20.6896 45.0237
CA -3.81308 -21.9463 55.3312
CA 15.4074 -2.54065 63.8303
CA -17.6759 -7.97974 53.1423
CA -32.6397 21.8989 40.7142
CA -6.16303 -16.4447 41.9198
CA -5.40665 -13.7066 50.7547
CA 9.25504 16.2461 36.9973
CA 13.7938 16.3199 50.4925
CA 9.75759 14.5527 44.1376
CA 11.5542 -20.5526 63.5452
CA 2.89157 22.9386 44.7274
CA -4.5161 -18.7992 50.8965
CA 1.88807 6.15961 37.4631
CA -20.851 9.0732 50.1959
CA 30.8721 -10.784 74.1356
CA -18.4526 17.724 43.8343
CA -19.5225 -5.83376 48.1756
CA -12.7449 -2.99627 39.6278
CA -0.643851 -24.9398 81.3328
CA -2.29005 -8.92068 55.1495
CA -13.326 -29.9371 48.9782
CA 16.0057 7.12869 69.6784
CA -22.554 22.016 35.3587
CA 11.1355 -5.36173 53.5647
CA 17.1829 18.8381 30.5515
CA -27.2732 -1.52582 54.7445
CA -11.6206 -11.1222 50.9944
CA 1.63362 4.92824 64.0113
CA 17.108 3.57585 71.5651
CA -3.02051 -21.0225 53.6758
CA 17.1006 18.5459 40.8871
CA -34.5578 15.0652 54.5066
CA -1.79088 -6.60646 52.4729
CA -31.8217 25.2528 52.132
CA 8.8772 16.2994 48.2787
CA 29.0523 8.85949 76.7175
CA -8.91148 3.62087 43.1691
CA -27.0222 6.0818 62.7754
CA 26.5402 8.85206 71.7715
CA 8.22793 9.40082 60.3785
CA 13.467 19.5887 44.5987
CA 8.63631 14.4235 59.7757
CA -22.4353 12.9816 53.8408
CA -22.3186 1.72306 64.9473
CA 0.416638 -15.0725 77.3051
CA 8.20656 3.23148 61.795
CA -31.0288 21.2042 41.2813
CA 14.8477 7.66552 49.0653
CA 4.3829 19.8887 38.1483
CA -37.7155 30.2696 43.7202
CA -6.82644 -14.4019 49.2025
CA -8.12551 -10.2631 84.7259
CA 10.2153 -3.86536 62.1982
CA 26.9565 -27.646 39.9829
CA -17.4988 2.45029 36.6592
CA 10.3956 25.8543 80.2837
CA -31.8884 5.93489 60.7782
CA 1.09507 21.3514 46.8312
CA 24.863 23.3827 78.6608
CA -25.7523 3.98105 36.7426
CA -3.10709 -3.00492 76.4168
CA 13.255 18.1744 40.8255
CA 7.80888 -17.6802 66.1144
CA 9.6411 -17.8779 66.9009
CA 23.7025 -0.516691 68.4034
CA 5.34005 -17.7983 43.2674
CA 11.2478 -21.8977 60.4565
CA 6.62706 -13.2559 64.783
CA -2.54907 8.27458 49.3297
CA 17.6804 16.2602 31.2368
CA -23.9404 15.9835 59.2452
CA 22.8335 -30.4851 36.6016
CA 10.3806 2.07299 64.4154
CA 11.2795 15.3567 64.2117
CA -9.07391 11.2824 32.7094
CA -6.20138 4.90515 40.5215
CA -24.8803 0.275268 61.4756
CA 7.13249 3.50853 51.328
CA -5.91027 18.3828 44.9083
CA -34.6044 19.7959 36.9075
CA 3.45064 -7.72201 51.5013
CA -1.72862 -10.2252 79.4996
CA 25.0604 22.9457 71.9582
CA -33.9784 0.990739 79.8214
CA -6.73851 -18.1265 40.1796
CA 30.2609 2.45121 77.858
CA 22.8061 16.4037 72.9392
CA -1.30284 -9.01079 74.6826
CA 0.883613 6.76032 39.101
CA 15.3386 3.33037 19.1897
CA -5.2531 -17.0856 45.8419
CA -6.18436 -4.9865 76.5362
CA 11.0387 -19.7934 65.4617
CA 25.5476 3.38187 70.951
CA -9.1299 -13.589 81.7534
CA 12.4742 -8.18642 59.2246
CA -34.0252 -2.65944 80.9921
CA -10.881 0.733259 39.7483
CA 10.4418 2.60304 19.0415
CA 16.4797 10.6498 59.3378
CA 18.509 13.5039 58.715
CA -3.18184 6.6263 38.9926
CA -9.58002 -7.50087 67.5905
CA -20.9662 11.6705 67.9026
CA 7.81667 14.3536 50.8909
CA -14.5833 14.3296 38.2099
CA 26.2225 -25.074 48.1945
CA -27 3.13033 42.3489
CA -3.66717 -15.3145 51.8962
CA -6.42149 -34.0605 42.6148
CA 10.6477 -4.02405 58.1518
CA 14.878 18.9053 73.956
CA -10.349 -1.31414 40.8457
CA -3.04344 -2.08253 40.7159
CA -30.7984 -5.45268 66.2825
CA -39.755 14.4521 52.8599
CA -25.7842 13.8229 39.6606
CA 16.154 9.32182 62.5925
CA -4.42861 -24.9434 81.8792
CA 15.7317 -5.5484 67.8479
CA 5.3571 -24.3124 88.4591
CA 14.3703 14.4041 70.8026
CA -36.0374 -5.84306 50.83
CA 0.608465 -12.012 54.8483
CA -10.7074 -9.63667 72.3412
CA 13.1752 -12.9734 82.5513
CA 10.2256 13.1555 60.027
CA -2.43648 3.24184 57.5442
CA -3.40274 -17.0917 53.4154
CA -31.1694 4.55584 68.7991
CA 11.1389 -12.0046 81.7243
CA -13.4839 -15.5858 79.2245
CA -25.6454 5.47574 70.8289
CA 0.940381 -18.7438 42.0977
CA -17.1484 -11.5204 41.2295
CA 17.4971 -0.501394 68.7586
CA -4.08077 -13.8301 57.4718
CA 5.52021 -18.062 59.7756
CA 11.1997 21.7428 75.056
CA 7.49176 11.6784 52.6132
CA 1.86096 -34.5834 57.5544
CA -5.33462 -10.335 50.1115
CA 16.0746 19.604 24.9642
CA -4.09228 -34.3883 44.5245
CA -17.5399 -10.2876 51.5819
CA -21.1789 14.7569 37.9215
CA 29.5594 1.72693 75.7937
CA 28.1537 16.0489 74.6485
CA -2.24937 -2.81451 45.6409
CA -12.5847 45.0554 60.0867
CA -3.0039 -2.69166 52.8058
CA 10.4671 -17.8773 63.1186
CA 12.6796 14.9427 42.3822
CA -20.8325 -0.300293 51.6085
CA 18.6555 4.94807 51.7269
CA -18.6289 -3.42232 48.0521
CA 6.98592 -5.55816 63.24
CA 24.9286 11.0039 72.7912
CA 5.8489 31.5181 57.256
CA -2.20042 11.4119 41.2324
CA 8.33592 2.6079 58.9042
CA -10.5115 -12.494 82.2001
CA -12.8481 -1.19389 40.9918
CA -34.1475 19.203 43.9805
CA 7.94621 -17.1386 67.8985
CA -1.98675 -22.4632 52.2497
CA 9.08239 11.927 47.3479
CA -5.197 -20.273 54.9959
CA 4.2405 30.1044 54.0612
CA 9.59084 11.3313 56.0342
CA -32.7174 9.30546 71.211
CA -7.97025 -5.62695 66.5568
CA -24.5364 16.6725 55.8925
CA -33.8661 17.1347 38.9345
CA 8.07216 -13.5338 63.2672
CA 10.1238 -18.622 58.7413
CA 9.84617 -3.70488 53.3097
CA 12.5333 13.7468 62.3852
CA 6.83858 -0.28778 61.8969
CA -24.2183 12.2655 26.3067
CA -37.6815 22.2285 51.2354
CA -18.9033 -8.08199 50.1783
CA 1.1731 2.66953 61.8933
CA -2.58032 -14.2307 48.4961
CA -28.9925 -4.90098 66.8471
CA -23.0015 20.2793 44.3906
CA 21.3086 23.5537 77.1324
CA 5.68439 5.33508 58.7431
CA 28.0848 -20.6179 41.2869
CA 5.87737 20.6009 36.8886
CA -35.2842 28.3637 45.7623
CA 6.94452 -0.770769 57.2745
CA -10.2013 -6.85677 78.0262
CA -4.05151 6.65482 53.7937
CA -11.2004 -12.6946 85.0594
CA -15.1233 -8.81287 41.6959
CA 2.79352 -10.5414 49.3543
CA -36.5093 23.6115 39.067
CA -0.545556 -14.7166 64.2872
CA 8.32578 7.21625 59.3089
CA -34.3725 19.1461 53.1967
CA -29.8331 7.37784 42.4323
CA 0.123782 5.54426 61.4839
CA 17.2935 8.20674 68.3835
CA -0.18649 24.787 31.1215
CA 7.30287 18.3832 41.5007
CA -34.8466 24.6752 49.955
CA -7.9384 -24.3358 85.0083
CA 28.8125 9.27592 80.224
CA 10.7598 -16.4837 61.301
CA 21.7816 12.2184 71.3894
CA -26.8448 4.1761 61.5733
CA 17.4668 -3.38401 18.8236
CA 0.633364 -10.7051 79.8004
CA 20.3934 2.24155 70.3161
CA 1.25451 -9.82035 74.7949
CA 9.55939 18.6 48.4412
CA 2.58524 32.1029 52.7132
CA -41.8864 10.5581 46.9965
CA 4.05557 -16.3633 78.795
CA -20.0499 13.619 46.7349
CA -12.0496 -0.607149 38.792
CA -13.6622 -8.89317 48.775
CA 14.4408 -3.02736 60.7706
CA -23.6788 0.831119 66.8902
CA -4.48781 9.22753 44.317
CA 6.23919 -7.79693 84.7297
CA 2.39653 -10.0257 77.7226
CA -26.6031 10.0177 34.4933
CA -36.1384 24.1464 44.0309
CA -2.85202 -16.6897 42.8813
CA -1.41778 -9.99556 71.8287
CA -20.2374 4.40994 52.5616
CA 12.5444 -5.92494 56.5642
CA 11.3024 11.7898 53.6638
CA -1.1515 -12.1238 72.292
CA -19.5099 12.9693 43.4223
CA 14.5898 -0.5404 66.4253
CA -31.6355 19.8827 47.0805
CA 4.19858 24.5209 51.5452
CA 24.2367 1.41524 73.1269
CA 22.2952 20.5802 71.1715
CA -7.00788 -15.2518 52.296
CA -29.435 13.8004 38.8018
CA -6.0033 -18.6788 66.8928
CA -34.0718 19.8799 39.6207
CA -5.37345 -20.7414 43.4473
CA -23.4962 16.1337 48.2271
CA 6.36788 0.31966 59.0151
CA 18.983 7.04619 26.148
CA 11.9743 12.7806 73.3601
CA 2.17867 -26.3367 54.925
CA 11.5247 11.3835 62.4188
CA 0.938642 -16.8587 65.7053
CA -38.7155 1.63423 73.7888
CA -0.712853 -17.3247 48.7612
CA 4.59046 27.8853 51.8801
CA 14.8588 17.1326 71.6448
CA 13.3428 24.1118 79.4941
CA -36.1043 14.1526 54.1983
CA 4.68892 -36.0499 59.5427
CA 30.3876 -16.2162 37.5629
CA 0.934025 -0.67571 55.0417
CA -35.0114 3.77116 66.2628
CA -21.2016 10.1344 41.7055
CA 10.7797 14.9188 42.566
CA 12.5702 18.765 70.8678
CA 8.17376 1.29707 61.5282
CA -27.2716 15.5231 50.5154
CA 3.06513 -2.12552 59.2762
CA 15.8715 21.3106 73.72
CA -6.36305 -36.1666 44.3593
CA -36.778 13.2058 73.2234
CA 3.33578 -10.4672 71.6447
CA 1.19286 -12.5713 77.8892
CA 10.8366 23.991 80.3952
CA 3.7344 -12.5784 78.9157
CA -35.7199 5.66425 67.1179
CA -7.08179 3.98963 75.4374
CA -14.2361 16.0701 51.289
CA -23.2104 18.7648 36.8262
CA 6.73687 16.554 39.5421
CA -2.06094 10.288 44.4918
CA 13.7901 13.6191 72.9263
CA -18.3136 18.8325 40.7512
CA 12.9818 19.973 74.732
CA 18.842 7.28105 22.6807
CA 11.5789 -6.52194 60.2135
CA -7.93402 -8.97706 47.84
CA -25.6995 9.64875 48.8638
CA -15.3174 19.0763 51.7384
CA -21.0145 -7.42787 47.1999
CA -35.4638 10.8744 72.9268
CA 26.4707 -15.3077 40.333
CA 24.4648 10.703 26.2989
CA 1.51128 -14.39 65.4389
CA -6.06523 -12.6332 81.8665
CA -15.4502 0.814498 36.6819
CA 10.8927 11.1068 76.2434
CA -28.6808 7.52624 32.3555
CA 25.6901 11.7721 75.3499
CA 1.97797 -17.3038 79.3632
CA -7.67901 -12.5022 65.1388
CA 15.2768 19.2501 29.4726
CA -0.0527579 29.3459 25.2324
CA -9.42851 -13.31 85.4478
CA 0.657723 -38.788 60.6881
CA -20.0437 2.2936 72.2018
CA 22.9754 0.125254 73.931
CA -31.0457 -0.134985 55.8629
CA -3.51482 -11.5515 77.8533
CA 11.106 5.05493 19.0435
CA -19.5144 -10.227 43.8272
CA -38.0035 12.6752 69.0147
CA -1.08743 9.44851 39.4983
CA -0.289734 3.84699 60.4467
CA -22.0417 -13.2373 43.7787
CA -33.8253 2.68744 76.6704
CA -4.582 -18.5345 44.9171
CA 4.14522 28.2421 32.0903
CA 5.43457 14.9425 61.8891
CA -18.2508 -6.62948 54.2456
CA -31.5991 18.2551 41.0447
CA 7.1598 23.9055 77.5322
CA -23.6422 4.51281 69.6047
CA -15.3183 -0.0777976 42.4481
CA 15.4196 11.2701 74.8655
CA -7.02415 7.9664 76.154
CA 17.3985 17.3443 34.1917
CA -30.7547 4.58284 61.6643
CA -18.327 -2.22511 46.3292
CA -2.96787 -13.7807 68.0788
CA 8.622 6.45019 62.0266
CA 7.12801 -10.9976 78.0585
CA -3.40081 -19.8713 38.9223
CA 11.1348 17.1348 65.1238
CA 7.25612 23.5795 48.0522
CA 19.2486 -0.0322054 64.3334
CA 22.5194 21.714 76.9996
CA 17.4602 -0.810554 62.194
CA 7.69245 20.1783 41.6876
CA -19.4773 -9.94992 46.1567
CA 17.9002 2.47879 52.0977
CA -25.6481 12.1 36.3833
CA -26.9215 2.04532 58.2971
CA 12.9869 20.5827 76.4272
CA -8.6551 -9.91806 70.4502
CA -14.3143 -11.3415 54.3519
CA 9.20699 27.3788 34.9262
CA -16.8133 19.6863 44.441
CA 3.31746 -9.42601 55.7842
CA 3.52997 -31.3794 57.0265
CA 19.9927 -31.4917 36.5485
CA -30.2699 13.0478 79.1981
CA -5.35363 -10.1646 58.518
CA -0.854813 -19.923 59.4129
CA 12.4456 -10.6696 59.3789
CA -6.58505 11.028 36.7557
CA 25.5754 -16.929 38.6699
CA -4.07137 -18.9184 40.6798
CA -22.488 16.8495 62.3658
CA -38.8025 10.7629 73.8478
CA -19.3795 10.2466 41.6522
CA 23.3971 20.5491 75.5638
CA -23.4487 9.51667 52.5671
CA -0.205914 -10.781 77.1268
CA -8.13343 -11.6506 78.73
CA 33.8829 -15.0858 40.8937
CA -28.3678 5.58175 69.4928
CA -4.13576 12.7076 60.9739
CA 2.29535 -13.0084 81.4828
CA 16.6954 -2.94199 69.4943
CA -11.4214 -2.18807 34.9248
CA -8.45964 -14.7615 80.1181
CA -20.499 -4.87516 52.0273
CA 27.4031 -18.5802 38.2922
CA -15.1869 1.14387 48.8166
CA -34.0301 14.2691 71.367
CA 0.303177 -1.38226 62.2443
CA -24.7736 -1.80971 51.1918
CA -28.8584 7.88233 64.5883
CA 22.2222 23.8833 73.4036
CA -0.904931 14.0035 49.2874
CA -22.1961 -5.3553 45.2958
CA -16.174 15.7735 39.9451
CA 11.0071 23.5837 76.7069
CA 2.10434 -18.2815 62.5608
CA -23.4296 7.69063 34.791
CA 7.68787 4.34101 55.4369
CA 5.03417 -17.2673 66.8541
CA 4.07214 -12.3369 85.5998
CA 6.58295 2.6441 55.4793
CA -11.6001 0.75555 47.5851
CA -6.45562 9.89449 31.7904
CA 6.47069 -1.30968 63.3909
CA -2.06274 -15.6702 51.0427
CA 0.108123 -15.7474 88.1516
CA 26.7345 5.49559 76.0469
CA -9.19953 -27.9178 85.1343
CA -21.495 -2.84649 47.8108
CA 22.9484 2.50518 69.1698
CA 6.14045 -8.37677 76.8681
CA -2.43067 8.37488 47.4544
CA -7.55746 -30.5719 45.1796
CA 12.8704 -1.50137 52.8533
CA 5.2011 -9.40574 48.6039
CA -34.0927 18.2707 55.7861
CA -13.121 16.2807 37.9694
CA -25.6027 6.80867 54.1629
CA -3.22023 -26.1832 81.0718
CA 16.451 13.9514 37.1496
CA 3.56378 -20.29 65.1061
CA -27.4989 -3.98025 65.5162
CA 13.2825 26.2254 71.6701
CA -30.5308 -2.07989 56.5226
CA -20.2503 -5.61193 45.9031
CA -32.0975 13.8941 45.375
CA -7.51596 -23.1475 38.0244
CA 3.28753 -11.7151 57.0383
CA 11.1573 -8.17834 83.9071
CA -26.8039 -5.97672 66.345
CA -2.04367 -13.5511 76.0482
CA 7.14467 28.6975 36.1693
CA -37.9586 14.0528 52.8734
CA 16.1845 11.7543 63.1653
CA -24.3019 3.23698 43.266
CA -8.13222 0.349135 41.1275
CA -41.6497 18.8553 50.5894
CA 23.3641 9.48247 25.3207
CA -16.4704 4.51266 35.7592
CA 0.937051 -15.5648 85.9738
CA -17.5995 3.91734 43.1704
CA 3.84594 -19.0831 61.688
CA 10.4128 17.3115 58.1096
CA -34.626 13.9459 76.7635
CA -29.4385 6.58524 65.7121
CA 18.4129 22.4445 78.6089
CA -9.88717 -29.45 46.6505
CA 0.306205 -13.3342 74.9179
CA -12.828 -3.80318 42.4196
CA 7.97438 14.7848 47.5849
CA -0.662843 -25.6271 55.2857
CA 22.4915 -17.7282 38.8159
CA -14.4447 2.04859 34.242
CA 12.5765 12.3413 55.0621
CA -18.7675 -1.41798 36.3395
CA -36.3957 0.257596 73.4486
CA 7.07036 2.70129 66.137
CA -4.13602 -11.0746 54.0032
CA -1.97107 -10.8329 75.9166
CA -21.6695 -1.18185 56.5532
CA 15.0251 25.6527 73.3586
CA 11.8547 -3.90048 56.3529
CA -28.3655 4.15789 39.959
CA -43.0978 1.44232 72.3809
CA 13.229 17.9488 36.7233
CA 4.18182 -12.3696 50.9085
CA 28.0051 -25.5199 41.6065
CA 16.972 6.62926 65.753
CA -2.8593 -12.1494 70.5659
CA 5.39478 -8.50982 56.8631
CA -4.87628 -6.192 76.176
CA -4.60447 -9.65935 75.0053
CA -9.21594 -8.78076 74.625
CA -45.1304 8.03134 51.2208
CA 8.44187 -18.1378 58.0583
CA -24.5386 5.21175 33.8508
CA -36.639 -1.79352 72.9338
CA 8.54796 -18.923 62.9511
CA 13.2581 24.009 71.4264
CA -23.2822 0.694868 55.2744
CA -8.43976 -15.2026 82.8928
CA 15.6823 -4.3141 62.8629
