489

CA -5.50888 -23.0718 78.1638
CA -1.89162 23.2761 58.4862
CA 14.4353 4.70489 61.105
CA 1.21437 -8.48626 77.1436
CA -0.255349 27.6677 27.2508
CA 5.43497 -18.0699 62.453
CA 3.10699 -7.33574 89.7219
CA 6.28576 11.5388 63.0139
CA -36.6879 -1.03116 71.5914
CA 22.1539 19.721 76.4222
CA 5.53307 -2.04265 60.7892
CA 3.76857 26.5619 34.4834
CA 18.2412 0.308446 54.9415
CA 10.6813 11.3044 50.0825
CA -23.5145 11.3397 49.6159
CA 8.5133 3.486 23.1066
CA 16.8499 -2.09035 64.5443
CA -30.9901 21.5871 49.2974
CA -20.3434 16.5351 32.6681
CA 7.91042 17.951 69.246
CA -6.16303 -16.4447 41.9198
CA 1.14533 8.80916 61.8242
CA 6.09748 13.5283 39.4827
CA 13.7938 16.3199 50.4925
CA 3.86092 24.6499 34.1694
CA 11.0213 -4.2342 60.5666
CA 24.7161 18.4604 74.4671
CA 19.7679 15.337 60.613
CA 0.873935 12.4937 39.5004
CA -20.851 9.0732 50.1959
CA -2.38573 -16.1392 48.8497
CA -18.4526 17.724 43.8343
CA 16.972 16.3107 40.311
CA -20.6568 12.4692 42.0006
CA 5.19098 -6.93965 77.5925
CA -32.5874 3.72552 67.1121
CA -20.8585 -9.08036 53.0919
CA 2.57126 -5.86889 53.2423
CA 22.747 3.41034 72.6244
CA -0.732928 5.13852 34.1268
CA 12.3691 -5.24278 18.2531
CA -18.5539 20.8733 40.8987
CA 15.5142 1.16506 67.2544
CA 12.5501 11.1412 55.9216
CA 0.860171 8.87676 40.7339
CA -25.4752 6.44717 36.7157
CA 17.1006 18.5459 40.8871
CA -34.5578 15.0652 54.5066
CA 7.18088 -6.56977 48.2602
CA -31.8217 25.2528 52.132
CA 8.8772 16.2994 48.2787
CA -26.6961 -9.80418 63.4276
CA -34.8562 30.3742 41.1377
CA -27.0222 6.0818 62.7754
CA 3.75817 38.0895 51.8598
CA -18.98 0.254678 46.8581
CA 16.617 18.1642 74.9656
CA 19.2061 8.81648 45.2002
CA 5.4685 -13.639 74.5875
CA -22.3186 1.72306 64.9473
CA -6.36092 6.48919 59.4015
CA 8.20656 3.23148 61.795
CA 11.6513 -0.165874 21.8775
CA 4.80538 -32.4189 59.8459
CA 4.3829 19.8887 38.1483
CA -37.7155 30.2696 43.7202
CA 2.01745 -16.4859 40.1918
CA -7.07861 6.96198 61.8062
CA 5.86303 13.9872 41.4297
CA -7.46283 -2.99804 73.3919
CA 20.2579 9.36388 56.5252
CA -2.27888 7.63281 35.5016
CA 1.28331 -9.70758 51.9873
CA 1.09507 21.3514 46.8312
CA 5.77757 26.6812 51.9297
CA 12.0505 11.9534 76.1422
CA 19.1832 1.77449 72.9855
CA 8.92638 11.9717 49.0375
CA 17.9675 1.92884 65.5374
CA 4.60489 34.8035 50.2127
CA -37.4791 23.5865 49.251
CA -27.828 8.88 43.9153
CA -12.3443 -11.9585 81.6594
CA 4.55118 -5.44731 83.0075
CA -6.21262 -16.101 47.3095
CA 17.6804 16.2602 31.2368
CA -35.8218 21.9181 41.9455
CA 2.89321 -8.74851 75.4746
CA -30.8383 23.5862 52.8942
CA -34.5059 22.8826 40.2358
CA 4.32015 -15.7638 66.7534
CA 5.13536 30.4526 49.7095
CA -24.8803 0.275268 61.4756
CA -8.55891 4.93514 65.5807
CA 8.75476 9.50653 68.2836
CA 1.64791 16.7985 38.93
CA 6.4945 3.10766 57.5341
CA -2.25072 -23.1984 59.89
CA -8.83925 -18.785 36.6301
CA -33.1489 24.2508 50.3614
CA 7.10544 -14.4595 63.0086
CA -1.42809 4.00588 66.4614
CA -34.2825 19.2521 52.8813
CA -0.643626 -11.1009 62.9599
CA 0.883613 6.76032 39.101
CA -9.47115 -22.426 82.8191
CA -26.1991 13.5423 34.0046
CA 18.8888 14.2113 53.3524
CA 13.6447 -8.7842 54.6654
CA -17.3958 -1.83875 50.1869
CA -4.48786 -21.702 79.6714
CA 1.51229 -5.75206 87.9536
CA -30.7186 14.8218 44.8819
CA -10.881 0.733259 39.7483
CA 10.4418 2.60304 19.0415
CA 16.4797 10.6498 59.3378
CA -1.15783 -7.38936 51.7141
CA -3.25422 34.4413 48.6863
CA 27.7827 1.76011 75.3101
CA 14.1773 9.77568 59.1743
CA -32.7318 4.852 68.6406
CA -35.7533 15.2133 55.8989
CA -31.5587 12.4346 74.3422
CA -26.5376 8.84232 62.4246
CA 19.4322 0.836461 66.1981
CA -5.60357 -5.33596 53.6988
CA -5.18073 -21.5384 83.8756
CA 7.98194 -1.18952 54.3331
CA 14.8602 -0.185477 64.7717
CA -22.6035 0.320899 51.984
CA -30.7984 -5.45268 66.2825
CA -39.755 14.4521 52.8599
CA -11.1772 -21.7333 81.4145
CA 16.154 9.32182 62.5925
CA -4.42861 -24.9434 81.8792
CA 15.7317 -5.5484 67.8479
CA 12.0957 15.7292 54.6655
CA 4.32275 -12.6615 55.2446
CA 1.14658 -14.4169 52.7756
CA 17.8108 1.45683 63.4644
CA -10.7074 -9.63667 72.3412
CA -34.005 20.9905 41.5152
CA 10.4311 16.8491 43.7392
CA -34.212 25.1943 42.4806
CA 14.2559 12.8946 56.9006
CA -14.5048 -13.806 55.9449
CA 11.1389 -12.0046 81.7243
CA -7.48246 -2.97055 44.233
CA -25.6454 5.47574 70.8289
CA -7.34525 -22.6007 83.6128
CA 2.00495 -12.254 59.5511
CA -7.34217 -25.3896 48.1528
CA 3.13428 -10.4155 53.3953
CA 0.60742 -19.7917 56.3364
CA -33.9932 24.3287 46.3787
CA -19.2922 -5.54781 44.2556
CA -8.18943 -14.0078 88.6473
CA -5.33462 -10.335 50.1115
CA 16.0746 19.604 24.9642
CA 8.48287 22.0957 72.3107
CA -17.5399 -10.2876 51.5819
CA -23.8559 6.57718 45.6091
CA -27.2827 -8.38106 66.7688
CA -13.0903 -5.33357 46.5221
CA 5.51454 36.6881 51.5856
CA 0.979957 30.428 49.8972
CA -35.0566 18.117 51.2591
CA 10.4671 -17.8773 63.1186
CA -9.60641 -17.7718 58.2248
CA -35.6028 14.6482 40.4778
CA -31.4997 28.7883 50.0972
CA -18.6289 -3.42232 48.0521
CA -31.3718 25.2375 54.4801
CA 4.47064 -3.45097 47.0825
CA -22.2758 5.25097 64.5949
CA -38.5728 30.0799 40.61
CA 3.03283 -18.2765 56.5633
CA -20.9044 10.2574 45.82
CA -8.5908 7.09977 65.1622
CA -0.515514 -14.5231 62.7814
CA -42.9233 24.5532 43.6563
CA -3.57961 -17.2602 90.5483
CA -0.555156 -18.085 53.9789
CA -5.197 -20.273 54.9959
CA 3.95379 31.0463 54.599
CA -3.82408 -17.0606 87.785
CA -32.7174 9.30546 71.211
CA -33.0771 13.8637 38.4523
CA -8.47801 -6.19104 70.1316
CA -4.3934 7.17854 35.6128
CA 14.4227 1.43916 60.0026
CA -34.8815 23.1301 50.6423
CA 11.7172 -8.54513 53.2933
CA 12.5333 13.7468 62.3852
CA 5.42615 5.59698 56.5847
CA -26.3567 7.70374 47.8724
CA 15.4292 9.00374 72.4538
CA -1.49613 -27.3925 86.5468
CA 3.78143 -8.7933 86.4421
CA -22.9501 -1.20914 55.2778
CA -24.9493 3.71227 61.415
CA -0.294088 -22.0253 50.577
CA 11.4351 -8.07276 64.6994
CA 5.68439 5.33508 58.7431
CA 14.3511 0.516369 17.289
CA 5.87737 20.6009 36.8886
CA 0.519662 -2.34865 52.7925
CA -28.1133 -1.47015 59.0252
CA 6.74225 27.007 66.5671
CA 0.0476297 -18.8692 40.6166
CA -12.2096 7.50608 80.1459
CA 4.85932 -7.37457 49.8212
CA -38.7823 23.7923 42.2727
CA -38.1833 26.1627 48.3975
CA 14.3835 -8.77372 50.2589
CA -3.36174 1.88713 59.2262
CA 15.1148 -4.07151 23.4071
CA 5.8454 33.1941 49.5001
CA -8.66449 -10.6643 50.739
CA 17.5906 19.1341 28.4224
CA 3.54632 25.2717 38.4866
CA 7.30287 18.3832 41.5007
CA -23.4105 11.0597 51.95
CA 20.6387 9.17547 41.4255
CA 21.5694 4.06742 71.2975
CA 0.558285 32.1786 47.9283
CA -10.7782 0.953211 35.2323
CA -24.6597 10.9216 46.1532
CA 17.4668 -3.38401 18.8236
CA 0.633364 -10.7051 79.8004
CA -36.248 18.5621 37.5471
CA 1.38867 0.336701 49.9219
CA 9.55939 18.6 48.4412
CA -18.0824 7.68519 41.4748
CA 6.17632 9.60976 60.2476
CA 4.85498 13.4167 55.9949
CA -38.7875 16.8404 54.5401
CA -3.46541 -23.4614 85.0819
CA -34.368 23.0724 42.5671
CA 14.4408 -3.02736 60.7706
CA -23.7077 5.01714 69.3056
CA -15.1422 2.76079 36.6697
CA -7.65126 4.13069 58.7611
CA 11.7714 16.6414 52.1017
CA -7.34975 -6.67899 83.8235
CA -3.8432 11.5966 59.2909
CA 7.86049 15.5255 52.7626
CA -21.2283 -2.8853 50.0042
CA 6.96448 -8.74434 50.6027
CA 0.7683 -10.9378 82.0362
CA 7.72395 19.5694 70.9127
CA -18.9041 -15.8321 48.7926
CA 0.392852 5.59451 37.2838
CA -40.4856 15.5222 50.872
CA 18.0148 14.5036 70.3079
CA -1.11503 -11.6886 54.0451
CA -8.77514 -7.11384 75.8474
CA -27.2842 10.2638 46.9294
CA -11.3731 -11.5689 89.8407
CA -29.435 13.8004 38.8018
CA -22.9533 -0.344766 59.8099
CA 3.36607 15.299 40.5734
CA 7.2897 -17.3769 47.1341
CA 7.37789 11.7111 48.1033
CA 6.36788 0.31966 59.0151
CA 11.6392 20.4889 47.4664
CA 11.9743 12.7806 73.3601
CA 20.0685 5.0466 54.1613
CA -33.6926 8.2494 74.1106
CA 0.938642 -16.8587 65.7053
CA -38.7155 1.63423 73.7888
CA -34.6293 2.47816 71.8159
CA -1.29913 7.3202 43.9175
CA -26.7011 -5.15219 55.5623
CA -10.5868 -17.8153 85.2803
CA -27.4071 7.42897 61.3104
CA 4.68892 -36.0499 59.5427
CA 11.5013 7.15723 63.6497
CA -2.35523 -13.5967 87.8519
CA 3.27466 -8.3977 80.7572
CA 14.3834 17.5543 61.05
CA -17.3286 8.77299 39.3656
CA 12.5702 18.765 70.8678
CA 2.74064 24.2663 50.055
CA -27.2716 15.5231 50.5154
CA -20.9308 7.08 36.572
CA -9.55122 -17.8815 41.6132
CA -41.4575 20.499 52.7092
CA -28.1383 -3.63565 57.717
CA 23.2997 5.58726 69.1249
CA 7.30333 -5.50334 58.9741
CA 13.9252 4.79567 72.8746
CA 3.7344 -12.5784 78.9157
CA 4.00233 16.8261 45.4337
CA -10.3399 -11.2643 57.8369
CA 16.6531 5.29096 63.7373
CA -29.9139 19.507 42.8465
CA -28.3998 20.0066 39.8762
CA 19.5903 10.0898 70.3923
CA -0.578003 29.6099 54.8673
CA 12.6944 14.8471 43.2042
CA 12.9818 19.973 74.732
CA 24.8781 15.004 26.5145
CA -8.53536 -21.6838 85.0537
CA 17.6178 -0.650695 66.7957
CA 1.58053 -17.4719 50.5286
CA -24.6743 14.5103 34.2803
CA -21.0145 -7.42787 47.1999
CA -32.2024 22.4125 42.0636
CA -5.74524 5.14961 65.9755
CA 0.0152384 -0.773249 48.5673
CA 12.2829 6.85553 59.7935
CA 5.23365 14.0757 43.368
CA -38.4638 -2.13543 74.6521
CA 12.9046 -11.4497 84.3983
CA 24.6714 21.3281 78.1549
CA -6.69788 -8.67657 50.5648
CA 1.97797 -17.3038 79.3632
CA -7.67901 -12.5022 65.1388
CA 15.7421 6.6475 71.0463
CA -9.01134 -5.84554 72.1668
CA -3.56896 -4.68071 52.3827
CA 22.9878 18.198 42.1925
CA 14.1698 -14.1001 80.9249
CA -0.762877 4.47064 36.1685
CA -41.2271 23.0719 42.6086
CA -12.3709 -6.6202 47.7734
CA 17.3294 10.7979 73.6507
CA -22.8884 6.47336 36.2886
CA 7.2487 -0.310778 56.6508
CA -20.776 -4.72825 47.7529
CA -26.883 3.79356 60.6687
CA -15.1204 -12.8617 51.0909
CA -20.3764 -9.5188 46.0158
CA -4.08578 5.79072 61.0488
CA 4.14522 28.2421 32.0903
CA -8.73707 -5.8781 35.4132
CA 16.8796 18.2342 68.9708
CA -19.5124 14.538 41.4314
CA 14.4104 -12.6521 82.8782
CA 3.62821 10.3222 38.5291
CA -15.3183 -0.0777976 42.4481
CA 15.5085 20.2128 74.7785
CA -5.8041 4.92511 31.7232
CA -3.73111 -6.98478 48.9961
CA -5.90781 -17.1593 52.4629
CA 16.25 5.36307 53.0897
CA -2.96787 -13.7807 68.0788
CA 1.03218 -7.41727 59.2035
CA 0.862485 -3.45431 65.7846
CA 4.13967 3.10285 58.7739
CA 14.728 -15.8341 62.0944
CA 15.0186 13.8831 53.0411
CA 19.2486 -0.0322054 64.3334
CA 16.2799 7.09994 55.7592
CA 17.4602 -0.810554 62.194
CA 16.5674 20.5561 73.2805
CA 6.13835 22.847 67.436
CA 6.95316 -2.28088 53.2345
CA 5.35309 22.2962 39.1228
CA 11.6696 -6.89993 49.2553
CA -1.19969 -20.3403 37.2031
CA 0.568704 -2.81934 50.2721
CA 18.119 8.76764 63.1769
CA -35.7287 27.9865 45.9127
CA -6.7138 2.26925 81.4291
CA 3.31746 -9.42601 55.7842
CA 3.52997 -31.3794 57.0265
CA -8.44955 -4.05102 66.478
CA -29.0218 22.8622 48.2024
CA 3.48105 -7.37958 78.4337
CA -27.0626 -3.23421 60.1808
CA 11.3343 15.5207 57.1967
CA -2.50521 -14.1995 72.2184
CA -37.5195 20.6973 40.5444
CA 2.19302 -19.2282 47.1213
CA -27.0215 17.2487 44.4497
CA 8.24131 2.41803 18.6088
CA -27.191 5.35509 64.736
CA 20.6896 -1.50246 62.6981
CA -4.92367 5.65758 34.5989
CA -1.65967 -16.8414 87.1575
CA -24.1013 11.8558 41.3187
CA -15.2569 2.85273 41.7618
CA 16.5726 -10.2144 53.8462
CA 8.2805 10.4585 50.5989
CA -17.6101 -0.0518181 53.1447
CA 6.85278 -9.98979 76.3521
CA -11.4214 -2.18807 34.9248
CA -8.45964 -14.7615 80.1181
CA 1.07001 24.4976 47.3485
CA -13.0332 -13.487 62.3292
CA -11.27 -8.63031 49.5716
CA -12.8843 -14.4749 84.4272
CA -8.35778 -15.4931 55.6555
CA -24.7736 -1.80971 51.1918
CA -23.5331 1.20932 71.9587
CA -36.9288 24.2101 38.6768
CA -24.0786 3.35736 71.4585
CA 18.035 23.4504 24.9219
CA 15.3399 8.03043 43.4672
CA 16.3516 -0.784831 57.5501
CA 11.2816 19.6022 78.8175
CA -23.4296 7.69063 34.791
CA 8.9342 25.0469 67.9057
CA 11.4716 -3.52583 18.1228
CA 11.8115 11.7962 51.9059
CA -25.8194 -0.889174 58.9661
CA 7.0156 9.96844 62.2215
CA 26.9899 17.676 71.7994
CA 7.39602 23.7838 31.215
CA 1.12118 29.615 52.3947
CA 1.70188 -4.15898 91.3561
CA -30.6249 6.07101 64.972
CA -10.3424 -11.7076 81.465
CA -6.14934 -15.7824 56.2901
CA -18.0163 -3.89242 46.1562
CA -2.66514 2.78311 62.0188
CA -0.21024 -6.68186 40.8075
CA 13.1082 -17.632 78.7202
CA -5.56565 -18.7836 41.6048
CA -28.1079 4.80272 45.1694
CA -0.932276 0.803891 59.5771
CA -2.90819 7.46497 62.1502
CA -8.90301 -9.1758 79.1746
CA 20.8911 18.7075 42.8551
CA -12.251 -5.77837 72.6599
CA -31.0779 15.8518 53.3961
CA -22.304 -4.09297 48.4642
CA -0.957848 10.9174 40.9681
CA -7.35384 -10.7744 81.4949
CA -7.78444 5.68691 40.5508
CA 10.524 -14.9953 78.3192
CA 16.7208 5.26127 22.9083
CA -1.15829 -2.59437 40.3691
CA 3.3799 10.8436 41.4349
CA -26.8039 -5.97672 66.345
CA -36.1393 11.9111 54.0066
CA 17.3825 1.20512 70.856
CA -13.0243 0.790223 36.1123
CA 16.1845 11.7543 63.1653
CA 13.9254 -19.1558 62.9762
CA -7.0822 -10.8166 46.7456
CA 3.36817 -17.9825 50.5614
CA -12.6457 -3.61331 34.3091
CA -14.5937 -10.97 49.7554
CA 17.4116 15.9347 75.9612
CA 20.1029 0.15058 71.235
CA -29.3934 -2.64232 61.3186
CA 10.4128 17.3115 58.1096
CA -1.61534 -11.4766 68.7187
CA 15.6284 20.8754 61.784
CA -8.02734 -1.27733 70.7684
CA -3.21156 2.02115 55.5885
CA -28.5911 6.27944 58.1945
CA 1.13632 -13.8264 60.8942
CA -30.9013 20.1684 53.7198
CA -9.86437 -18.2632 81.9558
CA -28.5098 13.729 43.5872
CA 8.66408 19.0502 81.3783
CA 14.5474 10.1212 55.8386
CA -24.7331 9.97283 44.2949
CA -36.3957 0.257596 73.4486
CA 26.1649 15.8587 29.9037
CA 22.296 -0.157474 71.446
CA -1.97107 -10.8329 75.9166
CA 16.6434 4.37647 72.1482
CA -28.1773 4.07346 63.4283
CA 0.892255 19.4288 43.5625
CA -28.3655 4.15789 39.959
CA -15.2823 -11.4076 55.2763
CA 19.1239 1.47182 56.7681
CA 3.07694 -8.62015 45.9431
CA 19.8225 6.91038 55.1777
CA 3.66344 8.38471 64.3368
CA -35.3706 -4.22181 80.027
CA 5.39478 -8.50982 56.8631
CA -4.87628 -6.192 76.176
CA 19.1137 2.10261 60.891
CA -32.9001 31.1632 49.1178
CA 14.9701 12.3528 61.5369
CA -31.8802 9.18412 44.1474
CA -2.87947 -16.466 85.8614
CA -21.425 -4.422 42.5802
CA 16.6398 4.35555 66.9781
CA 19.8597 -1.39458 67.2526
CA -33.3625 -6.77531 63.7388
CA -22.7261 3.19587 34.2244
CA -6.12093 -21.8126 51.1915
