489

CA 4.69334 8.93159 82.2108
CA 24.9355 -30.8094 51.7284
CA 18.5955 -4.87816 60.8166
CA -3.75769 -5.38839 58.5743
CA 1.19507 -23.454 70.3098
CA -6.70615 -30.3622 61.9913
CA -1.024 -15.2413 72.5174
CA -4.59958 10.6144 80.3469
CA -4.13335 -0.910546 73.7611
CA 30.2535 -31.8941 49.8443
CA 15.7687 -27.5908 49.2224
CA -11.1897 -4.65022 65.2834
CA 1.10733 -9.60768 75.5138
CA -2.90731 -2.23024 50.8746
CA -5.2918 -21.1279 67.4096
CA 18.6756 -4.51809 65.746
CA 5.62582 -1.76806 67.6202
CA -15.0051 -29.2026 83.9774
CA 15.3508 6.16133 49.5226
CA 0.554729 -13.8513 76.4391
CA 15.7168 -12.7789 48.1627
CA -4.23982 -6.09159 56.8394
CA -11.6353 11.6553 49.1015
CA 11.0522 -29.5945 67.4229
CA 9.32378 -6.13666 54.5372
CA 2.2412 -23.1478 52.1695
CA -16.5438 -15.0871 59.4477
CA 17.2856 -7.78938 69.2462
CA 18.7678 -0.893199 80.3011
CA 4.92194 -14.6112 79.318
CA -13.3649 -24.2297 40.3752
CA -0.89492 19.162 72.7616
CA -14.5191 -1.40994 69.5688
CA -13.4654 -8.78387 63.5538
CA 20.1054 -7.98232 74.4553
CA -5.04414 -7.97667 76.3917
CA 12.5816 -27.4361 48.0246
CA -12.2168 -32.4332 62.5879
CA -12.1785 -15.5314 61.7354
CA 27.6268 19.1173 61.0386
CA 20.5438 -16.1125 77.2618
CA 9.02348 -24.7424 61.1242
CA 27.9259 -20.6083 47.4
CA 4.69635 -5.16128 65.3057
CA 14.4223 -5.01075 63.4784
CA -25.0363 -2.7573 51.5679
CA 25.0427 25.4453 50.3329
CA -0.818361 15.1288 40.377
CA -5.14494 -26.2502 41.4968
CA -17.721 -3.19673 53.4167
CA -29.3556 -6.18066 53.2204
CA 12.5195 -10.8773 74.6048
CA -5.09816 -24.7264 69.2877
CA 9.22845 -6.43787 74.3914
CA 20.5936 -0.785945 59.5118
CA -13.2402 -25.3838 54.0758
CA 22.5096 -25.9945 51.88
CA -5.4052 1.63744 74.2563
CA -3.2205 -34.6809 43.6123
CA -3.53007 -13.5094 64.9293
CA 4.55483 -15.82 75.1434
CA 20.4738 -3.50497 75.3939
CA 11.1679 -31.1555 49.7861
CA 2.24262 -23.1518 72.5259
CA 26.7835 -27.1991 46.13
CA -11.954 -17.8878 59.5535
CA 2.07265 -2.43109 64.7938
CA 24.9723 -0.668592 73.4376
CA -4.24579 -8.56987 54.6064
CA -23.6151 11.5937 45.081
CA -6.94472 -16.2236 30.4509
CA 0.190335 -28.8218 57.2423
CA -18.8065 -13.1608 33.4799
CA -23.952 -3.03449 33.44
CA -9.48439 -18.2716 44.8509
CA 23.6506 -12.8761 55.435
CA 24.5421 -24.1706 48.4427
CA 16.1924 -0.843024 52.2125
CA -17.6539 -0.64413 73.8831
CA -0.116273 -20.0016 51.6867
CA 30.6026 -21.7173 48.9718
CA -3.87602 -20.5107 68.8599
CA -2.76156 8.48609 79.4261
CA -8.51661 -17.4579 61.5186
CA 19.6521 -5.19685 83.7021
CA 3.86578 -13.7191 83.7007
CA -13.68 -22.5937 39.0479
CA -23.6789 8.587 32.6534
CA -17.3792 -5.05405 36.1035
CA -2.78536 -1.11075 59.2712
CA 19.8135 -23.7921 49.2065
CA -1.12011 -8.93806 44.9404
CA -15.0388 -19.3671 41.2046
CA 9.56889 -29.2279 47.817
CA -10.4772 -16.8621 54.6647
CA -12.4758 -4.61928 62.9706
CA -28.481 -8.41602 36.4949
CA -2.9906 -3.10272 49.1081
CA -15.5754 -21.1882 50.9748
CA 4.60315 3.93527 59.7964
CA -4.26378 -6.8612 61.1344
CA -1.9679 6.59923 80.3695
CA -25.3725 -4.60034 51.4464
CA 12.5018 -4.53807 85.1834
CA -2.39026 16.6793 43.2061
CA 21.2979 -6.34049 82.6474
CA -0.0961765 -16.3828 76.4145
CA -4.38094 -21.3254 75.9481
CA 2.16184 13.6081 81.9856
CA -17.3382 -15.2542 57.0926
CA 13.6556 -9.78017 68.7107
CA 15.9899 -21.4766 49.874
CA 18.7197 -6.05978 76.9122
CA 17.0676 -10.6025 83.0952
CA 21.6186 -7.07182 62.7506
CA 21.026 -25.3608 50.9003
CA 19.3609 -10.541 74.5011
CA -8.36053 2.35781 65.6071
CA -23.0194 -1.93688 48.2685
CA 3.97012 -9.66552 82.3386
CA -6.69712 4.01092 73.4037
CA -7.07454 7.88198 80.2808
CA -3.91788 -11.37 76.4513
CA 15.1306 -8.03406 77.3279
CA -3.54882 -2.51963 64.3784
CA 8.40271 -25.2554 56.9227
CA 4.63555 -0.773906 66.4772
CA -5.67248 -23.942 56.5955
CA 9.79334 -2.87519 58.9312
CA -11.4468 -11.4696 51.2971
CA 1.43503 34.9292 39.4339
CA 16.2977 -5.87183 78.7354
CA 18.7006 -13.931 71.3863
CA 2.25028 -24.1204 59.4207
CA -28.339 -4.98574 56.0995
CA -5.80539 -10.5228 92.3906
CA 9.88475 -10.8054 64.5721
CA -2.53742 -11.0106 65.7277
CA -3.15215 -5.81177 74.5103
CA -4.94986 -33.1397 41.3399
CA -21.5171 -13.23 40.0262
CA 16.7914 -5.79844 81.9244
CA 24.2591 -4.25343 81.9323
CA -16.0629 -26.7175 57.4501
CA 10.9119 0.706784 67.2332
CA -5.38134 -12.6954 53.9383
CA -24.1579 13.2648 38.007
CA -11.3215 -12.1292 95.8196
CA -10.2793 -17.6327 60.7067
CA 21.4635 -0.801641 54.8389
CA 13.117 -9.255 78.1754
CA 11.8924 -23.4815 60.7944
CA -22.89 -7.06129 38.0971
CA 23.0633 -4.24776 76.5457
CA -4.28575 -5.1568 76.0514
CA -0.592064 34.3264 38.3259
CA 25.6335 16.1343 59.7898
CA -6.46948 -22.7835 61.8198
CA -19.8307 -4.2067 53.8521
CA 4.3868 -2.91016 72.6726
CA -30.2113 -10.2234 33.9906
CA -5.36619 12.0663 77.5323
CA 8.94955 0.679472 69.2625
CA 12.1281 -38.8873 50.8698
CA -5.41695 -26.4878 63.0149
CA -7.1693 -4.49313 63.1021
CA 3.59482 -21.1574 59.2351
CA -11.0633 1.17029 63.3409
CA -0.906864 12.6412 81.8562
CA 26.8335 1.4641 72.3897
CA 14.6581 0.819892 41.3148
CA -9.15762 -7.98724 64.4882
CA -0.4311 -11.4095 79.7841
CA -10.5563 -27.7707 83.0726
CA 23.6952 -29.8806 43.4146
CA 5.51068 -8.61315 61.4975
CA 10.5901 0.484434 77.0178
CA -18.4672 -9.22416 53.4049
CA 26.8562 15.9319 54.3973
CA -10.0935 -3.73244 61.8114
CA -3.03367 -17.9501 88.1936
CA -0.796731 -16.0045 67.9131
CA -25.768 -15.923 39.7004
CA 2.2696 -21.969 49.3221
CA 0.325159 -20.6716 70.3909
CA 2.52807 -7.79063 67.6628
CA -25.135 0.84603 55.7289
CA -6.18005 -17.4937 53.149
CA 5.45518 -13.0913 69.4887
CA 3.54392 -3.76042 66.6123
CA -3.68306 -20.658 40.6246
CA 18.26 -24.8241 50.164
CA -16.1939 -9.85228 33.6671
CA -8.76684 0.266341 54.5103
CA 7.13014 -0.261312 60.7973
CA -1.69554 14.9413 75.4448
CA 27.4635 -29.5357 51.4221
CA -9.88183 -19.4735 40.6926
CA 5.02902 -2.06925 50.4451
CA -3.23058 -30.5847 44.5328
CA -6.61663 -22.4668 65.7859
CA 17.0033 -11.2361 81.32
CA 13.6885 -40.6349 53.5525
CA -12.2464 -20.8028 36.9741
CA 23.2102 -0.469425 58.103
CA -9.43258 -23.1237 43.0675
CA -11.8441 -14.7576 84.2179
CA -3.70706 8.72313 77.7222
CA 18.6179 -10.2901 71.4197
CA -8.28436 -10.6167 90.9255
CA -20.952 -3.77796 56.0217
CA -5.34436 -2.5867 66.5359
CA -0.699393 -22.7153 59.288
CA -17.972 -16.6099 39.6222
CA -24.5963 9.86348 37.3712
CA 21.6247 -11.9071 78.1375
CA -3.2858 13.1736 75.4155
CA -10.2366 -2.45544 53.8484
CA 15.5393 -21.683 51.9169
CA 0.489222 -17.3035 68.7394
CA -7.09844 -5.81594 65.0033
CA 12.0652 -25.848 55.519
CA 8.62858 -24.7643 54.8647
CA 2.65274 -8.56544 51.2616
CA -14.9653 -25.514 89.4982
CA 13.1029 -28.0074 50.0926
CA 22.5568 -4.44226 73.5826
CA 14.0014 -6.52072 61.8807
CA -24.1369 -6.56597 53.405
CA -4.66631 -20.768 52.9665
CA -15.0855 -18.9872 85.5063
CA -22.154 -11.2473 35.8795
CA -19.0212 -9.79831 34.136
CA 6.53668 -3.10789 51.2685
CA -9.12437 -23.6533 52.4173
CA 23.7238 -2.41956 67.9005
CA -7.79161 -21.0572 16.9582
CA -8.32449 -17.277 80.7587
CA -31.7272 -6.80062 54.1645
CA -0.993905 -7.13059 36.8394
CA -13.7262 -22.2485 87.2528
CA 20.0799 3.20702 76.6838
CA 30.1068 22.6224 49.8257
CA 24.8346 -26.756 49.066
CA 13.7949 -28.8623 54.693
CA 23.5305 -25.4613 47.2696
CA 19.562 -29.9698 63.8644
CA 6.48304 -16.5187 81.1056
CA 11.1977 -42.7026 50.7741
CA 2.33309 7.29505 61.1207
CA -2.34386 -23.8549 65.1488
CA -3.87911 -9.55921 76.5875
CA -9.78553 0.116679 56.6742
CA -17.0593 0.700615 69.9217
CA -3.21334 -9.83794 52.0682
CA 13.553 -23.0388 56.5836
CA -4.38831 17.637 70.5523
CA -26.8074 5.42432 38.5372
CA -12.0854 -7.67385 90.1852
CA -2.98576 0.671078 49.5285
CA -6.57126 -36.6022 69.6609
CA -4.64333 -14.8389 49.4207
CA 18.3754 -14.5963 73.151
CA -6.8534 -17.97 32.027
CA 14.1961 -23.1365 51.3153
CA -8.72572 -26.0621 53.7533
CA -11.086 -29.7064 61.1418
CA -12.4103 -38.5679 73.5569
CA 17.7788 0.850282 79.8492
CA 2.75209 -3.93935 53.1195
CA 7.57658 -5.75677 58.3674
CA -8.02591 -16.9038 70.317
CA 3.72289 -19.2739 72.7588
CA 13.4285 -19.4549 52.7257
CA -20.9313 -9.91389 57.1203
CA -6.59818 -15.1782 50.3357
CA 7.44306 -12.3124 71.9775
CA -22.3718 8.7552 34.7424
CA 22.1648 -6.32176 60.6826
CA 9.99842 -13.3508 85.9159
CA -19.956 -7.31986 37.7447
CA 13.3006 -21.9305 48.1872
CA -31.2968 -0.621683 52.3473
CA -3.43259 -6.41248 72.4216
CA -3.42679 5.32598 77.4188
CA -6.90117 -6.44961 62.3079
CA -14.0542 -13.635 77.1149
CA 4.55703 -1.3534 53.6978
CA -12.9711 -20.0871 62.5948
CA -22.2075 3.15222 51.3689
CA 1.96268 -3.50902 56.0219
CA -1.65388 -14.7243 60.9256
CA 16.1015 -25.0145 56.1209
CA -3.37256 -4.66159 42.8695
CA -8.5297 -23.1312 63.2511
CA 13.5018 -31.2544 45.952
CA 28.3244 24.5847 53.0548
CA -16.518 -7.05641 62.8081
CA 5.20837 -23.3671 51.3364
CA 25.2975 -15.3944 82.3453
CA 3.04384 -22.2482 55.0908
CA -4.29098 -23.8392 65.1898
CA -6.15797 -9.91818 65.3315
CA 23.4717 -24.4109 50.182
CA -3.22299 -23.7799 67.7322
CA -28.5811 -3.62251 50.4101
CA 5.00149 -17.7612 79.1488
CA 14.4951 -14.6475 52.4382
CA 3.96757 -5.69082 67.4079
CA -17.453 -16.4983 60.5836
CA 3.94223 35.1575 40.5923
CA -6.58848 -15.8317 52.1643
CA -2.35555 17.8425 78.1932
CA -6.75775 -16.4977 88.7714
CA 25.3075 -11.462 80.0853
CA -11.8239 -37.3897 70.8632
CA 8.98712 5.01832 45.9139
CA -16.7878 -24.5342 93.0397
CA -8.00955 -13.695 28.04
CA 6.78149 -13.9025 73.4556
CA -13.0086 -23.203 84.4727
CA -3.67168 -13.5564 44.0185
CA -7.30686 -18.2858 41.0477
CA -4.3602 -16.312 55.2955
CA -2.70418 11.2237 38.6687
CA -4.12415 -27.5904 43.8352
CA -5.76284 -0.398587 44.1854
CA -17.7065 -10.4959 29.091
CA 6.32984 -9.62607 72.2883
CA 6.68482 -23.6585 62.7827
CA -17.5689 6.64327 54.5306
CA -18.5161 -5.77015 52.9296
CA -10.0392 -19.6599 62.3412
CA -15.138 -10.0264 30.7385
CA 1.45722 23.5011 40.8934
CA -11.324 -35.4093 74.6859
CA 11.5043 -13.8697 82.2085
CA -9.40248 -11.3019 88.7151
CA -6.48823 -9.53785 25.749
CA -5.28852 -1.48815 48.3351
CA -9.53795 1.09432 62.0699
CA 23.2065 -2.43001 63.269
CA -5.82327 3.01285 71.0829
CA 12.7045 5.66213 52.8136
CA -5.77828 -16.9117 46.606
CA 19.624 -13.3754 56.535
CA 26.7484 -9.04444 76.9525
CA -28.2383 -7.90345 53.5882
CA -3.02687 -13.2199 75.2543
CA -19.4074 -8.71874 25.7027
CA -14.9542 -9.07971 58.5019
CA -11.3172 -24.5103 53.1951
CA -13.0484 -15.7768 59.3035
CA -29.9534 -0.727494 59.248
CA -26.4399 -5.46944 55.6786
CA -7.81948 5.77962 79.7423
CA 9.61102 -21.8006 50.3936
CA -2.35195 -23.9567 69.987
CA -16.9711 -24.0109 87.7702
CA -10.1543 -39.1136 74.7993
CA -4.43862 -13.5921 46.4549
CA 26.2482 3.27881 69.2855
CA 8.23401 -11.5499 68.7327
CA 27.204 -6.37105 77.9615
CA -8.07172 -3.41096 55.5306
CA -12.9627 -4.6998 65.9354
CA 12.9715 -28.4503 65.7885
CA 19.6156 -8.83715 66.1063
CA -17.518 -8.56171 38.3616
CA -4.92511 11.4253 72.3959
CA 6.30073 -1.17755 65.5686
CA 25.6558 1.67903 61.8668
CA -7.36841 -20.4153 76.4628
CA -17.5317 7.05324 56.295
CA -27.8274 -6.70544 38.3565
CA -4.30152 -15.7704 64.9967
CA 21.4381 0.658209 62.66
CA 14.3512 -12.7017 53.3699
CA 16.0801 -26.3865 51.2344
CA 9.64788 -43.5534 53.9369
CA 10.3854 -8.42464 51.9797
CA 18.593 -13.8654 85.397
CA -23.2776 -4.19116 53.2575
CA -8.52705 -21.8466 60.6317
CA 2.6718 11.0607 80.0247
CA -11.8994 -21.5888 54.8836
CA 25.4536 -6.72524 79.1803
CA -10.7061 -38.4199 72.5282
CA -22.9197 7.70144 44.3304
CA -9.24245 -5.02295 55.5102
CA 12.9983 -11.9331 66.3454
CA 9.1117 -35.7903 50.1307
CA -7.18014 -17.6534 26.225
CA -5.00275 -18.0453 65.9113
CA -7.47238 -13.1623 25.7976
CA -6.05884 -31.5699 43.3199
CA 6.02406 -2.08266 56.5515
CA -9.59089 2.62014 69.2726
CA -18.5224 -18.4833 42.6184
CA -2.24267 -12.6088 66.7575
CA 24.9866 -9.48935 78.8545
CA -8.47979 20.9857 37.3091
CA 0.164558 -5.08782 60.4827
CA 2.49382 -2.00021 52.3884
CA 12.6798 -33.2235 45.3962
CA 0.173664 -6.91242 33.3871
CA -24.2991 11.647 39.4428
CA 17.3044 -21.9698 73.4201
CA 6.63392 -18.0134 72.5821
CA 4.34949 -3.31361 55.2348
CA 14.8433 -3.16483 78.9193
CA 8.87746 -23.2375 58.676
CA -5.50708 -20.6704 43.6668
CA -1.18052 -11.4842 71.5939
CA 22.5625 -26.6328 71.34
CA -24.89 -8.06195 33.9289
CA -22.0262 -11.3485 44.4099
CA -18.8334 -11.2159 39.3124
CA -5.80103 -19.6354 72.8874
CA -1.39165 -22.2845 56.4643
CA 6.20827 -15.163 76.6546
CA -3.79612 9.75468 76.0776
CA -16.1237 -25.3076 54.3389
CA -3.64866 -27.0307 70.1113
CA -9.87814 -26.4095 56.7394
CA 20.6015 -0.565347 64.4467
CA -23.6765 9.2229 47.8695
CA 11.3114 3.08753 55.0617
CA 0.932681 -15.1068 74.0063
CA 4.5729 -21.4119 50.4548
CA 16.5704 -0.747505 75.9975
CA -20.8331 -6.66322 53.1078
CA -28.9655 -4.41496 39.1668
CA -4.51548 -16.2048 44.122
CA 20.415 -29.5176 51.6613
CA 23.552 -10.0069 72.8366
CA 16.6796 -15.3488 50.5602
CA -16.5362 -21.3768 83.2197
CA 0.942863 -25.9447 70.5563
CA 12.7053 0.659406 72.6043
CA 4.53534 -13.1462 81.4878
CA -21.6899 7.36427 50.3515
CA -5.90584 -24.5448 67.4944
CA -7.20131 0.496975 75.7594
CA -3.13414 -3.31893 58.442
CA -9.02164 -18.4661 20.1254
CA 19.4605 -7.30693 69.4743
CA -26.1484 -7.4947 31.3687
CA -4.8922 -11.5095 52.15
CA -2.24645 -20.9369 52.2326
CA -18.9968 -11.7243 53.6154
CA -4.82106 -18.5304 46.2951
CA -15.4855 -12.6105 34.1692
CA 15.646 -3.45278 80.7288
CA 21.2648 -7.1753 65.7323
CA -11.908 -16.1785 87.5625
CA 13.4615 -9.67212 75.5599
CA -5.3031 -4.67997 64.8093
CA -37.3081 1.48733 51.6759
CA -0.377083 -24.4377 67.9759
CA 5.85547 6.41526 81.2264
CA 0.0696797 -4.93677 49.246
CA 9.26585 -11.5166 74.1348
CA -0.496247 -0.8527 64.7993
CA -29.1002 8.79095 50.4307
CA -17.9149 -8.64091 64.1682
CA 24.8376 -31.2026 45.1647
CA -15.0735 -17.0215 60.0655
CA -32.1152 -3.28894 54.2293
CA 15.4696 -15.47 54.0031
CA 1.14995 -21.3387 76.0517
CA -3.16255 -6.49947 68.7258
CA -2.48022 -4.48656 56.9325
CA -2.95522 -6.70284 55.6838
CA 15.5368 -7.46771 75.1522
CA 11.9429 -5.40371 62.9208
CA 21.1547 1.19653 76.004
CA 25.2457 -2.45798 64.7333
CA 7.81939 -13.9872 81.6826
CA -4.95403 -9.28948 51.3731
CA -22.3797 8.6076 41.4581
CA 21.5469 -7.1598 80.2642
CA -11.8172 -16.4672 38.6711
CA 7.29358 -13.58 79.0442
CA 23.6402 -28.831 51.1511
CA -25.5173 10.4529 44.0589
CA 26.5974 -1.91309 73.3766
CA 4.44107 -5.25364 84.6338
CA 12.6569 -8.02457 76.5014
