489

CA 13.4738 -22.665 52.1872
CA 4.65759 -2.38698 60.9946
CA -9.67181 1.55783 71.0406
CA 18.6541 -8.18544 78.9955
CA 10.4745 14.1495 48.5459
CA -9.26644 -20.6042 69.4673
CA 3.41624 -13.3922 67.5354
CA -13.5823 -19.0873 57.3234
CA 18.5867 -8.85426 68.5272
CA 2.70249 -9.32337 66.5525
CA 22.5931 -8.06509 83.8287
CA 9.14933 -8.26403 72.4767
CA -8.21236 -21.0887 56.609
CA -8.82135 -0.00801384 67.6468
CA 5.58868 -24.2212 42.5474
CA -13.8854 -16.6838 83.1105
CA 12.6344 -19.5506 65.864
CA 23.8256 -29.5831 51.6358
CA 25.5635 5.7695 54.9957
CA -20.9633 -4.88489 61.054
CA 2.42572 -25.3558 45.5537
CA -15.4807 -19.1624 57.1869
CA 13.7121 -0.0869183 57.6842
CA -2.70202 -0.464491 63.4241
CA 3.43691 -3.32207 59.9287
CA -3.54222 -16.0776 66.8614
CA -10.9556 -11.5039 59.2578
CA 3.37893 -23.0726 65.8404
CA -18.777 -20.9873 55.7047
CA -32.5778 -8.28948 56.5927
CA 6.55639 -17.2291 56.1209
CA -1.77804 -6.83862 50.2487
CA -6.4015 -28.612 67.0225
CA 17.4405 -4.51102 73.6425
CA -20.2581 -11.0728 58.0438
CA -6.14841 5.3307 77.2014
CA 9.70953 -11.5399 73.2127
CA 24.7051 -37.6874 48.4077
CA -8.18311 -18.0443 36.5461
CA 4.0161 -12.865 83.3043
CA 0.598029 -0.183353 71.8016
CA -0.0235166 -2.70552 60.4677
CA -5.99507 6.07417 80.1772
CA -11.5681 0.916674 68.4237
CA 14.4223 -5.01075 63.4784
CA -10.7385 -17.0496 30.8606
CA 15.0653 0.363821 68.224
CA 10.7322 -39.492 53.5691
CA -8.38294 -14.4438 41.2601
CA -13.9116 -7.9283 29.9776
CA 12.7296 -29.8224 45.05
CA 5.83211 -12.6986 85.931
CA -6.79455 -10.8153 22.0874
CA -11.5829 -16.2068 80.4386
CA 20.4933 -6.92232 80.4615
CA -24.9958 -13.4574 37.2987
CA 10.3791 -37.6545 48.9923
CA -1.19428 9.55417 87.9084
CA 13.9827 -7.43013 67.4574
CA 16.1026 -5.87184 61.0278
CA -0.319679 -20.0098 43.7859
CA -1.12797 5.84155 78.1618
CA 17.4609 -5.97384 55.8753
CA -4.00109 -31.7771 64.264
CA -32.8728 -4.24901 57.1313
CA 10.536 9.24049 48.7322
CA 1.78674 -22.9557 75.3613
CA -10.2552 -1.40966 78.7988
CA -7.08174 -18.2761 52.3274
CA 17.3904 -2.64717 48.8209
CA 12.6956 -16.9843 44.4951
CA -23.4132 8.0846 38.3427
CA -0.77667 -21.0474 52.0477
CA 9.36494 -23.234 52.4248
CA 17.4275 -41.964 45.5442
CA -2.97203 -3.58643 63.1216
CA 7.7468 -9.39521 78.836
CA -15.4856 -25.0361 58.3152
CA -9.04375 -23.7693 50.0619
CA 5.83428 -19.8265 52.353
CA -0.860066 27.1713 41.7876
CA 12.8019 -29.4835 48.8026
CA 16.0392 -5.89163 69.9453
CA -2.57477 5.00064 75.114
CA 17.1461 -39.6775 55.1223
CA 7.00912 -6.83432 79.299
CA -2.1865 -7.09133 77.1453
CA 16.5286 -39.0196 48.9861
CA -8.20843 -17.2762 46.0859
CA 16.6091 1.14735 76.2392
CA -11.3498 -8.79863 61.2788
CA -16.609 -14.9917 54.0584
CA 7.32141 -24.5685 64.3289
CA 6.45527 -13.7449 75.0567
CA -23.0569 0.94502 58.12
CA 8.17941 -9.01176 65.8862
CA 21.0173 -9.44844 80.0876
CA -2.0441 1.25803 51.6351
CA -1.28003 -5.26948 70.2713
CA -19.6636 -17.0616 58.0294
CA 19.6336 -26.2408 61.393
CA -10.6974 -16.8792 62.415
CA 19.4281 -5.66764 78.6791
CA 9.34848 -28.143 52.0662
CA -8.15425 -14.5944 82.8861
CA -7.8903 -18.6928 24.6334
CA 11.9904 -43.7517 55.7858
CA 6.89229 -23.3294 51.3242
CA 15.4946 6.88896 69.6838
CA 25.0603 4.73123 70.1934
CA 14.2291 -35.9546 49.2988
CA 6.25895 -17.9751 81.5931
CA 16.2525 -17.939 67.9347
CA 15.0394 0.422352 59.8273
CA -25.4127 -1.78514 54.5456
CA 10.8458 2.06814 63.4671
CA 21.7123 2.96098 70.1773
CA -26.5315 -7.30708 33.9987
CA 13.5582 -3.3121 74.6261
CA -13.1926 0.296541 57.8355
CA -6.69712 4.01092 73.4037
CA -1.61193 -11.5643 78.8027
CA -2.78166 -1.58965 53.6461
CA 14.8762 -13.0436 83.9047
CA 0.0190428 12.5007 87.5596
CA -7.71522 -20.1503 26.4822
CA -12.96 2.40845 58.8099
CA -14.0686 3.40266 57.7696
CA 12.757 -22.6027 50.4063
CA 16.1341 -2.72751 74.7875
CA -23.8664 -12.0328 59.3843
CA -9.40812 -17.501 27.5352
CA -32.3195 -9.17715 58.7812
CA 6.59186 -3.20335 62.4056
CA 10.5252 13.7123 52.0689
CA 14.3547 -18.2944 66.8107
CA 4.41099 1.28695 72.0227
CA -1.95957 22.0774 46.2673
CA -3.51566 -27.8236 65.1445
CA -8.84279 -16.6587 31.284
CA -21.5171 -13.23 40.0262
CA 11.2827 2.4841 73.8121
CA 10.8746 -1.47676 81.1729
CA 24.8077 2.68475 56.0088
CA -8.20271 -17.1215 29.1041
CA 12.137 0.957334 65.7314
CA 14.7152 4.3854 70.0138
CA 13.8646 0.986291 82.4141
CA -16.6709 -9.59093 40.581
CA 21.4635 -0.801641 54.8389
CA 4.50974 -21.3926 38.5175
CA -12.1077 -8.36925 32.5936
CA -29.057 -13.3588 32.5723
CA 0.642746 12.6279 78.9097
CA -2.41283 3.11609 50.4902
CA 10.8967 -10.3652 94.421
CA 8.00728 -14.3319 75.9014
CA -7.27516 -0.187441 58.5501
CA 20.6385 -38.528 50.0251
CA -23.056 5.03067 60.4514
CA -19.0936 3.2276 54.9145
CA -2.82229 1.83474 85.8803
CA -8.19146 -6.41554 64.3579
CA -26.1561 -5.42269 27.5206
CA -6.96652 -24.3585 49.5447
CA -2.37596 -34.4277 63.5184
CA 3.59482 -21.1574 59.2351
CA 8.08224 -50.2894 49.2108
CA 22.7262 -2.70604 50.8627
CA -20.3284 -17.3014 42.4154
CA 8.43134 -2.99629 74.583
CA -1.69181 11.4277 81.5686
CA -5.75214 -2.3251 57.2257
CA -0.318275 9.76079 82.0543
CA 23.1538 -6.43627 82.428
CA -0.398929 0.427861 59.1363
CA -16.8003 -4.84817 67.3205
CA -11.2128 -14.3402 30.963
CA -22.2601 -1.06027 57.3744
CA 0.63986 -5.22858 63.1478
CA -4.66144 15.9869 75.3478
CA -20.059 -15.0454 58.5272
CA 19.4542 -2.20266 77.8614
CA 8.65412 -4.01118 62.3077
CA 3.46375 -15.3872 63.2794
CA 1.16442 -7.07214 79.2921
CA 8.23268 -26.9605 71.4166
CA 0.808399 -19.6535 73.6746
CA 20.0432 2.21094 58.3767
CA 19.9847 -11.8699 82.4215
CA 0.619184 -10.622 78.8467
CA -2.65442 -18.8426 69.3574
CA 5.53232 -51.6712 45.8165
CA -3.78594 -2.88467 70.5588
CA 24.9858 5.15495 57.2592
CA -3.31153 11.4246 74.6739
CA -4.91329 -20.479 52.5191
CA 8.99956 -21.1218 47.7359
CA 2.7635 12.1968 77.3731
CA -4.66584 -6.189 28.8805
CA 21.8699 -13.1023 79.0731
CA -6.66126 -1.30933 52.791
CA 17.7961 10.744 49.9565
CA -25.9852 -12.2166 33.9045
CA 20.448 -13.3509 80.2724
CA -0.687053 24.5469 38.1465
CA -3.91408 -16.7578 68.487
CA -18.7435 -18.8521 59.3707
CA -21.6691 -6.25405 64.5379
CA 4.6738 -20.8311 55.4181
CA 15.2826 -22.7212 57.333
CA -17.2603 -27.352 61.7929
CA -17.5079 -11.5725 60.7957
CA -1.79806 8.84679 86.3309
CA 0.0779876 10.8696 88.4789
CA -17.9336 -19.8889 45.223
CA 4.30789 -26.8717 71.3409
CA 1.68235 -8.94505 59.7434
CA -1.78753 11.2425 78.9716
CA -6.10433 -18.2659 76.689
CA 6.94406 -24.0065 73.3153
CA -5.95376 13.1999 74.7209
CA 8.12648 -11.1202 64.9717
CA -8.98338 2.29377 61.3688
CA -3.98584 -6.81177 53.5649
CA -21.2676 15.2986 44.6104
CA -12.6543 -17.0019 52.8515
CA -6.95794 -14.4818 66.5217
CA 13.6038 8.24714 80.9029
CA 15.69 2.32118 71.4486
CA -1.2449 -6.28313 56.1173
CA -19.1793 11.1654 40.8308
CA -20.8141 -3.00965 35.7685
CA -17.3243 -8.79903 54.5843
CA -27.0884 -6.52273 31.4929
CA -24.844 12.9281 45.4624
CA -8.93743 -8.04589 64.8243
CA -8.32449 -17.277 80.7587
CA 18.4915 1.6405 60.5146
CA -6.01789 -2.84296 43.3632
CA -12.406 -0.938242 70.5172
CA 25.53 -0.897216 49.5861
CA 20.4856 -16.3101 52.7304
CA 9.76109 -12.9639 92.4848
CA 13.7949 -28.8623 54.693
CA 23.5305 -25.4613 47.2696
CA 9.77207 12.6312 49.6849
CA -4.67379 -29.7474 67.2895
CA -7.1206 -1.34086 44.1537
CA -23.1879 -2.84205 51.9741
CA 5.57801 -13.1673 72.4448
CA 14.701 -26.6756 47.2989
CA -30.7268 -5.52128 58.3292
CA -11.3086 -4.84868 62.0195
CA -11.581 -32.2939 65.2761
CA 19.017 -2.22733 54.0033
CA -4.38831 17.637 70.5523
CA 0.531084 -18.5614 64.2446
CA -4.95948 -5.25215 50.5717
CA -1.47335 -15.5672 46.84
CA -4.14916 -10.3418 65.2178
CA 13.5481 -3.21854 68.0221
CA 1.03168 13.987 87.2169
CA -14.645 -10.83 91.4502
CA 12.7043 -15.6402 63.3333
CA -6.49351 3.15031 76.073
CA -11.9608 -22.62 67.1726
CA 3.0271 -25.8833 47.5949
CA 7.70845 -13.6082 72.3326
CA -7.01633 -10.5988 19.5419
CA 2.58832 -11.9004 60.5435
CA -10.1982 -17.1839 74.2276
CA 3.72289 -19.2739 72.7588
CA -19.7599 -13.5005 60.136
CA -8.6019 -16.3511 85.5697
CA -4.2506 -0.482476 53.3243
CA -2.68061 -0.66349 60.8458
CA -22.3718 8.7552 34.7424
CA 2.9399 -19.6221 70.6992
CA -0.775758 14.2394 86.2642
CA 20.2602 -7.43543 69.2272
CA -9.63695 -3.52182 55.7945
CA 15.7579 -41.7522 56.0008
CA -3.43259 -6.41248 72.4216
CA -19.0527 -0.51644 52.0251
CA -5.19293 -6.38356 65.3962
CA -4.14377 -24.0497 68.0017
CA 16.3623 -36.3351 56.7185
CA -6.69 -19.1552 54.5425
CA 2.19157 -9.3717 79.5823
CA -0.166942 -12.9252 79.6013
CA 18.7664 -28.4534 47.9457
CA -21.0543 5.81256 54.9488
CA -23.4485 -6.70232 34.4088
CA -11.9395 -5.8341 65.0607
CA -3.24883 -7.29533 51.8508
CA 27.2172 -5.12454 54.3859
CA -9.98381 -9.12501 29.3878
CA 10.8996 -12.2573 90.1687
CA -30.1314 -6.92074 55.7226
CA 29.1887 -6.05765 83.3595
CA -3.63121 7.0904 71.6616
CA -28.9095 -5.40806 33.8435
CA -27.1178 -14.8921 31.6301
CA 18.1363 -18.1099 55.1563
CA -3.94213 -1.6945 72.7083
CA -5.22855 1.82478 67.8337
CA 26.2567 -6.13048 66.4693
CA 21.4906 -8.55006 70.1274
CA 15.018 -38.5031 54.6829
CA 8.52794 -38.9923 49.1919
CA 25.8694 -14.3873 79.9187
CA -8.64617 -1.96696 60.2714
CA 6.79282 -25.5396 59.3473
CA 25.3075 -11.462 80.0853
CA 9.37132 -37.705 55.5695
CA -14.6328 -10.5414 29.3456
CA -11.677 -13.1959 50.3292
CA -8.00955 -13.695 28.04
CA 13.1389 -31.7271 53.4949
CA -2.74346 -12.462 81.3318
CA 12.3066 -5.41739 64.2511
CA 11.8236 -24.7363 51.0414
CA -29.113 -7.61723 53.4967
CA -13.267 -7.62135 63.7748
CA 17.5214 -6.21354 72.0004
CA 3.90074 -25.1393 64.1277
CA 11.4557 -0.8322 61.7014
CA 2.1162 12.5831 88.0778
CA 29.7288 -7.25795 88.2568
CA 23.92 -4.69034 52.9412
CA -2.48179 -16.392 59.0502
CA -15.2634 -6.43245 67.6082
CA -11.1305 -8.45711 56.6798
CA -4.38768 -1.38862 62.4308
CA 22.5 1.11981 53.4191
CA -13.6736 -5.44035 61.6882
CA 15.8495 -37.3022 50.7014
CA -6.48823 -9.53785 25.749
CA 9.6134 -2.23969 68.088
CA -4.15601 11.9612 76.3694
CA 2.32552 -17.3084 61.0515
CA 4.64871 -10.1235 70.2728
CA 12.7045 5.66213 52.8136
CA -19.7805 -8.55519 54.4131
CA 11.2968 -0.498236 54.724
CA -19.6042 -4.66633 62.8492
CA -9.72822 -29.0261 61.7166
CA -13.6226 -3.34641 56.5555
CA 22.5623 -5.42254 80.7274
CA 13.9538 -40.1587 56.1035
CA 26.7845 -11.3836 78.6431
CA -8.95391 -17.9598 41.1978
CA -17.5821 -16.413 48.3309
CA -26.4399 -5.46944 55.6786
CA -9.55397 -1.75291 53.3379
CA -8.88517 1.00446 74.6596
CA 11.3618 -10.8537 91.8887
CA 11.8238 -16.8477 71.8097
CA 16.7784 -24.7927 51.6622
CA 14.32 -19.9364 54.4986
CA -1.15386 23.9101 41.9701
CA -2.50409 -30.368 63.5947
CA 7.84229 -37.9946 56.8101
CA -34.2448 -5.96814 55.3102
CA 22.6648 4.05624 58.5356
CA -9.9242 -9.07765 33.5892
CA -34.2007 -10.7168 61.9786
CA 19.7836 0.238102 64.9182
CA 3.91056 -21.3938 76.9446
CA -14.479 -34.6403 67.3672
CA 0.129491 -20.355 55.394
CA -5.85179 -15.9589 67.0932
CA 7.88828 -46.3859 54.0632
CA -21.0016 -2.08144 64.7148
CA -35.6515 -8.6599 55.1836
CA 14.2814 -6.84686 69.2336
CA 4.37607 -22.1896 47.6085
CA -5.24388 -12.7959 45.6815
CA 3.75177 -15.9117 70.2367
CA -2.39397 -10.665 76.0105
CA -17.6329 -14.9883 58.3921
CA -10.7161 -0.544029 65.1155
CA 20.6774 -4.09145 54.645
CA 20.6754 -27.5369 46.5426
CA 2.85416 -16.3181 58.3879
CA -32.9269 -15.8598 32.6594
CA -26.0341 -14.3203 32.9813
CA 12.7817 -21.0966 62.0848
CA -1.27444 -8.34469 63.4325
CA 25.2984 -10.0071 82.1117
CA 11.1653 7.6073 70.031
CA 8.98772 -38.6699 60.4031
CA 10.2591 -13.4347 86.107
CA -2.74114 -10.0415 72.9708
CA 3.23378 -20.2636 75.2647
CA -15.0157 -6.94375 60.1817
CA 20.8359 -29.3549 62.1172
CA -0.786166 -8.28734 69.1581
CA -10.188 -8.64348 59.6379
CA 9.04894 -19.9658 52.2829
CA 9.78559 -42.8536 49.4116
CA -2.35281 -3.65069 64.9501
CA 16.1923 -21.2958 54.9295
CA 5.79305 -15.0288 72.0565
CA 7.17566 5.79554 85.7339
CA 14.3266 -21.0219 51.8425
CA -17.0668 -17.9541 53.0551
CA 12.0646 -15.0623 66.8574
CA -25.366 -4.7555 33.184
CA -5.19112 -1.90182 59.3816
CA -14.3301 -30.3684 61.7299
CA -4.30064 -0.477514 51.4211
CA 11.0584 3.14335 69.0418
CA -19.8843 -20.9154 58.6048
CA -24.89 -8.06195 33.9289
CA 9.13278 2.01645 84.3279
CA -1.98491 -3.41684 69.7349
CA 4.63821 -7.7144 56.4701
CA 21.7481 -36.899 49.241
CA -3.05338 -2.47771 60.8872
CA 20.1749 -6.09063 75.6312
CA 19.6964 -24.1093 58.1424
CA 25.2155 0.969013 53.8139
CA 0.843302 -5.38606 66.7895
CA 8.28635 -12.2416 61.2116
CA 2.28616 -1.16619 61.3795
CA 11.3114 3.08753 55.0617
CA -12.0294 -24.6634 67.5037
CA -13.7968 -16.0963 51.5452
CA 6.72649 0.496692 67.9087
CA 23.4051 -26.5241 52.99
CA 1.5718 11.7556 81.0576
CA 4.01274 -28.4785 63.0025
CA 2.51453 -27.565 41.3139
CA 25.5268 -29.8314 55.8984
CA 16.6796 -15.3488 50.5602
CA 15.7922 -18.1492 53.0053
CA 14.5064 11.361 50.9133
CA 24.2668 0.241126 52.2581
CA 11.3825 -12.5222 66.9085
CA 27.5862 -7.19544 62.8779
CA -8.14059 -33.2349 59.3791
CA -8.55654 -6.55135 32.101
CA 20.2113 -4.44257 72.3001
CA -8.22866 -7.59937 29.1489
CA 20.2134 -4.0038 56.8451
CA -13.5796 -5.87798 33.5214
CA 14.1649 -5.61118 61.29
CA -6.65246 -2.5546 64.5596
CA -3.73598 -3.5634 59.1822
CA 19.4304 -16.9837 69.4866
CA -19.695 4.32415 57.3347
CA 20.7337 -5.07454 84.4846
CA 21.2648 -7.1753 65.7323
CA -25.7037 -5.11499 47.2876
CA 22.7903 -8.63362 76.352
CA 8.54351 -24.1565 67.2582
CA -8.74233 -16.5039 72.0825
CA -3.06473 8.90782 39.4393
CA -11.1944 -0.76282 53.9666
CA 21.9688 -24.389 54.3828
CA -10.7213 -25.2069 58.6417
CA 0.958423 9.61255 38.6725
CA 14.7429 -16.8281 46.7214
CA 9.71002 -30.4249 55.2339
CA -1.90233 13.3192 89.735
CA -7.21068 -22.8345 55.3766
CA -32.1152 -3.28894 54.2293
CA 3.77575 -7.41804 60.6838
CA -7.51868 1.11372 48.8371
CA -2.12922 -8.13684 55.6012
CA 23.7685 4.24897 55.0135
CA -3.9265 -8.7555 64.3503
CA -8.26098 -11.0991 65.688
CA -9.91941 -0.364173 69.9538
CA -15.8016 -10.6387 58.4446
CA 16.5327 9.83886 51.7006
CA 11.4256 -14.7872 70.4454
CA -12.7539 -12.6848 51.9128
CA -4.31109 -2.92794 66.4536
CA 17.2791 -16.1987 55.2826
CA 7.20244 -34.2859 52.0386
CA -17.0004 -5.79415 35.9989
CA 22.4974 -13.8632 80.6822
CA -11.8209 2.99961 57.1873
CA -5.77546 -0.108144 63.979
CA -13.1332 -21.6095 63.6442
CA -32.9974 -7.48772 59.7445
