489

CA 5.80997 -12.8291 33.7357
CA -15.1483 -20.6565 41.0261
CA -1.52932 -14.4797 24.9682
CA 25.6683 0.777314 55.1067
CA -3.1181 -5.03971 68.4785
CA -3.87631 -16.2163 44.4874
CA -9.49347 -23.0451 66.4054
CA -14.8878 -16.843 44.4495
CA -8.16053 -10.8896 76.4959
CA 16.3602 -45.9055 53.3645
CA 1.68019 -21.3617 57.9608
CA -12.8576 -13.1558 83.295
CA 9.56269 -5.53806 56.8676
CA -25.0109 -16.8879 25.439
CA 25.8268 -0.864285 47.7722
CA -11.9612 -10.1886 82.1767
CA -0.963088 -23.9556 68.41
CA -5.57299 -23.5488 21.5653
CA 2.21846 -12.8704 58.0153
CA 3.22247 -3.84994 51.2578
CA -18.2553 -19.1386 38.1849
CA -8.41083 -18.9815 56.9584
CA 13.4741 -9.34609 72.5787
CA -8.9232 1.83051 72.5929
CA -5.51195 -27.5462 51.7797
CA 1.65024 -0.85709 69.3011
CA 7.98671 -9.59271 80.713
CA -36.5031 -5.17479 55.2271
CA -16.0306 9.83346 65.0351
CA -7.25411 1.84175 55.6745
CA -8.723 -5.20297 60.3984
CA -11.4099 -28.4231 66.8049
CA 5.52556 -21.1661 74.0067
CA -21.5309 -18.4449 31.1421
CA 9.91153 -31.9282 54.1461
CA 6.1195 -5.68567 48.8323
CA -0.922924 -4.45542 77.0112
CA -10.7265 -40.4514 64.8316
CA 4.79845 -8.23998 52.5081
CA 10.0347 2.56762 60.4532
CA -7.35783 -10.2687 24.3113
CA 21.591 -25.0801 58.6686
CA -19.1554 -7.29796 48.9237
CA -9.19741 8.41544 67.6587
CA -5.30368 -13.0475 60.8603
CA -20.5725 -6.64769 40.4204
CA 0.915956 -26.0746 68.2513
CA -8.85242 -15.1151 35.0523
CA -14.6961 -17.0195 26.6365
CA 14.1919 -6.91844 55.0656
CA 1.30244 -9.79241 52.1277
CA 36.656 3.11686 58.5644
CA -19.0408 -12.4308 44.9386
CA 9.12705 -13.6788 85.2551
CA -10.3638 -12.5836 38.0502
CA 0.15729 -4.10003 35.7152
CA -11.9672 -21.509 57.7074
CA -8.42535 -1.97594 70.2339
CA 8.35981 -40.0215 60.101
CA 6.92662 -7.51867 82.5128
CA 23.5096 -11.1053 64.1345
CA -20.7625 -10.9341 64.8401
CA -0.496672 -21.3685 60.3925
CA -19.5398 -12.047 48.2773
CA 17.9442 -21.2961 46.5183
CA 5.21127 -27.7571 53.716
CA 1.78674 -22.9557 75.3613
CA -10.7512 -16.6699 86.0521
CA -13.2108 -42.399 68.7059
CA -20.6559 -33.0695 71.7413
CA -19.2936 -10.3584 51.1471
CA 15.3333 -40.2982 47.1902
CA 14.2597 -6.25224 50.438
CA -10.5028 -21.9677 64.6184
CA 12.5006 -9.22875 74.8906
CA 7.18508 -3.75275 59.3715
CA -0.219846 -8.08984 56.3303
CA -8.99511 -15.0498 47.9052
CA 11.4432 -22.4778 44.8184
CA 12.4095 -15.9364 49.5494
CA 0.3527 -4.01428 33.8883
CA 19.4733 -42.4264 56.5622
CA -35.9745 -2.50168 63.8216
CA -26.406 -10.5407 60.3974
CA 12.5507 -38.9639 54.7273
CA 15.3809 -44.3076 45.2418
CA -26.0943 -17.6468 31.4114
CA -4.32751 -17.236 66.7944
CA 14.2534 -41.6871 44.1885
CA -9.7231 -12.2143 32.101
CA -2.85833 -16.6542 25.8889
CA -2.8835 -16.1812 65.6836
CA 2.62839 -4.57214 57.6007
CA -9.83206 -14.8638 61.5328
CA -9.9933 -6.30977 59.0485
CA 16.2711 -17.805 73.8305
CA -20.7914 -1.0215 58.901
CA -2.87788 7.83821 90.7142
CA 8.8397 -14.0572 71.9551
CA 21.0263 2.27885 52.3807
CA -18.3599 -5.60404 65.1533
CA -19.2037 -8.91677 36.9226
CA -16.0285 -8.65673 50.7486
CA -16.8013 -19.3945 86.008
CA -1.51947 -22.0775 42.0669
CA -3.51627 -26.9615 48.3098
CA -22.8674 -34.1833 64.3898
CA -29.8841 -12.4023 59.8878
CA -16.9725 -20.4791 31.449
CA 2.35958 -1.05683 52.6886
CA -27.9503 -11.9092 58.9384
CA -19.6805 -20.8003 85.6051
CA -4.02754 -22.1089 67.3239
CA 6.08062 -35.8408 46.7441
CA -11.0803 -16.4896 38.2262
CA -25.1711 -7.76755 56.2347
CA 12.1971 -45.7675 55.0353
CA 31.1684 3.18089 49.1285
CA 9.71067 -13.6062 76.3826
CA -11.2617 -0.665301 56.3756
CA -37.5831 -14.2965 60.8255
CA -0.576194 -9.56102 63.0309
CA -5.44102 -23.4652 52.8432
CA 18.4339 -9.62777 78.1926
CA -20.4208 -23.2377 84.8002
CA -1.15289 -9.21667 32.916
CA -2.42605 -23.5509 36.0713
CA -14.2348 -18.7912 73.5308
CA 8.92307 -16.5099 49.3359
CA 13.6896 -41.4419 57.4478
CA -11.2481 -29.2247 63.9363
CA 12.236 -2.00236 74.9951
CA -2.58181 -15.2341 41.5023
CA -4.38617 -14.4691 23.789
CA -1.07995 -12.4907 72.3077
CA -15.9206 -22.0925 42.0038
CA -0.218304 -7.60152 53.0273
CA -9.6127 -38.2122 69.996
CA -0.474806 -6.3509 73.8045
CA 22.0564 0.650569 58.1872
CA -0.816464 -14.0603 14.7315
CA 7.13438 -14.9059 46.4271
CA -17.1512 -10.717 44.182
CA 16.2661 -7.17784 70.8947
CA -15.603 1.67353 54.9136
CA -3.25024 -25.2696 70.167
CA 3.44835 -1.94393 54.2295
CA -24.9052 -18.8731 45.4619
CA -27.7179 -3.72512 54.5221
CA -13.6317 -36.6614 71.6125
CA 19.2533 -0.483911 63.0398
CA -27.2272 -7.36407 32.9978
CA -34.4364 -13.426 57.374
CA -11.7851 -10.2887 88.9682
CA 23.9899 2.58599 58.586
CA 18.5961 -38.1083 44.9343
CA 0.574804 14.466 86.6633
CA 4.03295 -23.3303 74.6565
CA -8.2367 -13.0095 16.4438
CA 3.92429 -13.7492 36.6337
CA -1.61815 -1.03305 33.8282
CA -13.9629 -9.9545 42.285
CA 16.3386 -22.6852 54.796
CA 12.4148 -25.1639 49.5038
CA -7.16871 1.43114 58.2794
CA -5.62931 -12.796 76.1977
CA -27.0452 -15.2016 29.2413
CA 8.41295 -42.3653 56.1376
CA -12.0087 -40.9442 66.106
CA 19.1484 -16.0124 47.1055
CA -1.90736 -12.6037 14.2805
CA 2.73318 -28.865 68.4308
CA -4.85413 -31.2999 50.5313
CA -10.8496 -32.0959 65.7582
CA 15.3601 -5.58981 55.9578
CA -9.02412 -4.50863 38.5005
CA -24.0607 -10.4327 46.1519
CA -1.97257 -19.3134 56.9382
CA -24.6154 -18.7055 39.3046
CA -20.3617 -18.5059 32.6735
CA -15.9311 -16.1453 47.2172
CA 1.8065 -10.4032 73.611
CA 11.1478 -11.0235 53.26
CA -25.3645 -17.7978 36.3439
CA 6.66732 -13.1742 74.6403
CA 25.4499 -3.14695 49.5351
CA -4.03992 -13.1784 45.9067
CA -0.903858 -2.97704 69.6687
CA -7.84558 3.11614 69.6896
CA -7.3153 -8.87032 82.2203
CA -1.53927 -11.5936 22.4847
CA 4.5335 -10.3989 77.9802
CA 2.6504 -5.01438 62.0569
CA -15.5678 -5.58102 49.7308
CA 15.8003 -1.97568 58.88
CA 7.40086 -7.39209 59.6946
CA -5.61476 -21.4821 37.4209
CA 17.8448 -29.0611 49.9948
CA -15.8594 -14.0792 50.3286
CA 6.99565 -3.20465 53.9827
CA -12.9848 -4.00528 66.6694
CA -21.8361 -7.68576 61.4025
CA 12.1691 -5.23204 53.8445
CA -7.98672 -27.2175 53.9616
CA 27.0722 0.198374 54.1265
CA 17.5144 -33.097 46.9258
CA 14.4716 -14.8633 44.343
CA 3.2443 -2.9324 60.9704
CA 12.2213 2.13682 56.7144
CA 17.3221 -8.05949 53.999
CA -5.42971 -11.464 39.1523
CA -19.5001 -1.81396 51.8229
CA -0.190356 4.62691 55.2588
CA 3.96342 -17.1834 32.6282
CA -1.40331 13.4068 89.8714
CA -5.0355 -19.9075 56.1233
CA 29.257 -0.495091 46.7768
CA -15.6267 -7.14427 81.8853
CA -1.12199 11.2742 88.2756
CA 26.1604 3.55486 57.277
CA -36.1488 -4.79004 59.8521
CA -4.98217 -15.8485 21.9747
CA -41.3142 -20.4548 62.7638
CA -8.40838 -26.2858 69.0835
CA 0.0563321 -6.86794 65.1713
CA -10.9064 -1.5263 71.8761
CA -12.3101 -23.5248 60.7594
CA -2.10678 -13.6518 22.669
CA -33.627 -10.1162 56.6359
CA 9.49 -1.96061 60.9916
CA 1.92142 -5.77097 50.6676
CA -21.9109 -7.72162 66.931
CA 19.1933 -25.6676 47.4271
CA -4.829 -20.493 19.2388
CA 0.143309 -26.7392 65.9433
CA 11.9216 -28.2148 51.4181
CA -18.241 -5.7805 50.187
CA 12.1662 1.66518 63.6923
CA -5.52124 -23.763 60.303
CA -7.14075 -12.1675 18.9846
CA -3.2037 -17.5667 16.449
CA -7.70987 -21.3642 56.8309
CA -8.74797 -9.99152 71.2992
CA -8.63242 -8.93096 58.3451
CA 9.22907 -7.84438 51.389
CA 11.8058 -40.6817 62.8285
CA 15.5919 -40.2417 50.2435
CA -10.0373 -10.6625 72.8761
CA 21.9543 -21.1738 49.6951
CA -1.39009 -23.771 64.0166
CA 31.1173 4.47004 56.2588
CA -2.44784 -18.358 19.2169
CA 0.967384 -9.41852 79.1744
CA -30.117 -15.979 53.3783
CA -9.71643 -13.6955 85.0272
CA -26.954 -20.0324 27.061
CA -3.48656 -5.4066 34.3102
CA 15.337 -38.6208 57.9018
CA -8.8337 -0.726115 59.1813
CA -9.24931 -10.8028 74.6719
CA -4.14916 -10.3418 65.2178
CA 14.0526 -10.4692 76.8089
CA -1.44792 -8.4395 34.9656
CA -11.7035 -21.8321 72.3522
CA -2.34698 0.806363 52.4698
CA 23.8639 -12.8428 56.7161
CA 23.6362 -20.4319 46.3652
CA -11.8193 -32.206 72.4751
CA 12.4593 -16.2816 46.8642
CA -2.31352 -17.9151 61.9879
CA 4.31527 -11.2146 35.9655
CA -2.78565 -1.68398 49.711
CA 14.48 -0.886374 73.1996
CA 31.3244 -0.343757 52.7576
CA 24.6842 -10.0436 57.3333
CA -4.20621 -21.2841 54.595
CA 13.3588 -22.3044 47.4508
CA -1.47089 -25.4321 71.2027
CA -24.0811 -11.7187 48.8656
CA -12.4671 -16.0808 59.0641
CA -2.38466 -23.1534 61.8784
CA 4.6115 -8.85849 57.3149
CA 0.0305576 7.49451 90.335
CA -18.4627 -22.1309 89.318
CA 15.8309 -5.40138 82.4427
CA 27.7099 2.24302 45.1419
CA -6.79188 -17.3494 38.6003
CA -5.57933 -15.129 30.3685
CA -1.73283 -13.1956 47.7874
CA -2.23271 -11.5588 44.8033
CA 13.9728 -5.52708 82.5862
CA -26.3229 -9.97865 44.154
CA 26.6827 0.789672 50.6975
CA 1.73898 -2.14062 62.9026
CA 17.7812 -38.4906 57.7697
CA -15.148 -8.20753 39.0002
CA 16.6395 -31.088 49.4335
CA 14.2027 -24.2263 45.1691
CA -21.0535 -8.5994 48.7693
CA -25.6879 -12.234 62.251
CA 17.7493 -19.7847 47.9374
CA -3.63121 7.0904 71.6616
CA -35.067 -8.12189 60.1495
CA 10.975 -7.70944 75.4112
CA -10.602 -3.35447 67.8136
CA -4.54649 -12.5251 31.8996
CA -23.0026 -10.5059 51.5102
CA -17.4392 -10.9081 49.3263
CA 23.3039 -10.0187 60.2664
CA -5.03325 -13.6591 49.4652
CA 9.49408 3.48967 58.9211
CA -12.9099 -18.5804 87.4137
CA 1.92848 -3.11857 67.0613
CA -23.009 -9.23736 44.9816
CA -23.8425 -18.4662 43.6448
CA 10.0767 -4.36038 76.4009
CA -14.7957 -6.2387 60.3407
CA -18.3218 -8.61427 47.3423
CA -12.5775 15.0057 67.9736
CA -37.54 -9.93483 53.587
CA -24.4559 -13.6454 32.3273
CA 2.21518 -14.894 45.382
CA -10.2945 -20.323 46.3919
CA -20.2251 -22.4624 86.6423
CA -5.96764 -4.14167 24.0615
CA -23.5503 -16.2884 29.6573
CA 11.9482 -17.3189 42.606
CA 17.5233 -20.2151 73.9575
CA -36.4804 -5.24679 64.0265
CA 8.4048 -36.0603 46.6771
CA -10.0216 -19.5312 74.6082
CA 21.7957 -7.99527 79.6625
CA -1.28984 -14.9195 68.7411
CA -13.3767 -11.347 84.7823
CA 3.23144 -23.027 70.6937
CA -20.2352 -3.95411 41.3282
CA 13.6997 -9.56391 46.4736
CA -6.42885 -23.3514 68.2171
CA -5.75226 -4.93501 47.6527
CA 24.9156 -9.02047 83.2115
CA -16.956 -38.1494 70.0714
CA -22.0191 -5.86978 47.181
CA -11.1733 -7.13062 61.2399
CA 4.69576 -5.106 51.4003
CA 19.2569 -18.7136 44.5689
CA 14.95 -10.4307 74.1171
CA -3.89986 -15.6586 60.6498
CA 12.8087 -8.22512 80.9055
CA 6.86625 -40.1291 52.1434
CA 9.49758 -13.0713 73.4004
CA 14.3423 -25.6064 50.2662
CA -15.2744 -12.3861 41.1439
CA 10.2519 -17.7917 45.1225
CA -19.463 -33.1282 70.2101
CA 15.1116 -9.14019 49.3557
CA 5.59515 -5.79875 62.5317
CA -15.4635 -26.3009 84.3124
CA 9.32121 -7.63085 57.8263
CA -22.7792 -3.3457 52.4018
CA 0.12465 -9.23398 36.0891
CA 1.57947 -6.63765 58.7069
CA 11.5711 -32.4003 51.2789
CA -13.1067 -17.5227 25.2154
CA -5.49793 -1.19028 55.6794
CA 21.6383 5.21877 58.7164
CA -16.8685 -18.2655 27.9252
CA -14.8916 -12.3397 51.474
CA -8.44996 -12.1537 72.6651
CA -21.0427 -16.7407 38.2264
CA -12.2991 11.462 66.3589
CA -21.2207 -10.8477 39.0755
CA -14.3714 -36.2074 64.6574
CA -2.85615 -9.70074 58.744
CA -8.52559 -14.4499 79.0293
CA 5.64516 -2.84167 51.9195
CA 27.4597 -2.93037 48.0048
CA 12.8353 -39.4759 42.6127
CA 27.6852 0.868945 46.8177
CA -13.6887 -13.1924 24.2686
CA 25.9387 -23.4616 52.7016
CA 7.42857 -13.9384 77.0784
CA 14.8773 -8.55334 76.8074
CA -34.5925 -15.4168 58.5081
CA -13.7142 -18.4418 28.6341
CA 3.03228 -6.36657 35.433
CA -10.52 -17.647 22.05
CA -21.7449 -14.1692 45.6597
CA 2.62808 -42.4396 51.332
CA 0.303469 -27.3484 47.4291
CA -9.83645 -12.3697 62.1025
CA -11.704 -4.62023 40.0798
CA -1.61 -17.1344 46.2055
CA -11.263 -13.1418 25.3355
CA -39.9888 -10.1555 57.3181
CA -3.0654 -17.798 60.3221
CA 4.00634 -5.86867 56.3675
CA -21.9162 -11.0593 44.8325
CA 28.5085 1.43165 50.2032
CA 23.9206 -16.1245 50.6301
CA -4.01234 -25.8291 53.8173
CA -0.405826 -17.8474 16.8289
CA 0.653036 -10.1814 60.0502
CA -23.4508 -12.0254 23.7493
CA -5.63995 -19.6146 35.3728
CA 5.95006 -5.59111 43.8638
CA -20.1697 -11.1412 44.3806
CA 6.40674 -1.90573 50.2378
CA -4.83642 20.7703 94.6166
CA 1.53514 -16.0515 47.4342
CA 2.08638 -4.78105 64.0853
CA -3.42791 17.3446 92.4608
CA -5.68851 -8.59304 42.2157
CA 0.737792 -2.09142 66.0869
CA -2.32679 -24.3957 75.8085
CA 7.19958 -36.778 47.895
CA -0.950706 -3.36668 60.2863
CA -10.3326 -30.3323 66.3967
CA 6.74294 -28.7828 45.6921
CA -24.2902 -10.5488 58.0666
CA -22.2113 -3.9925 65.1881
CA -9.0198 -4.88198 57.7696
CA -4.67051 -25.059 50.0966
CA 19.6964 -24.1093 58.1424
CA -2.90086 -8.89779 65.4267
CA -9.28659 -4.7519 41.2601
CA 27.1079 -12.23 54.9444
CA -4.71473 -14.6928 18.6946
CA -3.747 -25.8482 37.0456
CA -4.18776 -19.9334 58.3118
CA -5.09987 -23.2821 37.2165
CA -3.87334 -12.793 15.1237
CA 6.88064 -9.04068 51.7993
CA -10.6925 -19.5707 58.287
CA -22.1885 -34.5458 69.7443
CA -22.5682 -9.51472 39.7316
CA -1.99033 -27.775 69.8221
CA 13.2372 -25.2677 56.6607
CA -3.14772 -20.8592 61.9888
CA -23.0082 -21.434 36.3757
CA -18.8675 -8.31508 63.6922
CA 15.4474 -38.7381 60.2306
CA -21.5161 -14.0845 48.0156
CA -17.3906 -14.7568 74.4961
CA -15.5293 -16.4943 72.256
CA -20.7248 -22.7974 32.0808
CA -0.126358 -28.5777 71.7417
CA -16.204 -18.7079 38.6898
CA -0.367548 -3.71012 66.3984
CA -16.5483 -33.2494 71.9072
CA -10.018 -12.9305 41.851
CA 16.259 -22.1097 45.9748
CA -2.91462 15.7291 93.4646
CA 7.71189 -3.19497 43.7961
CA -4.59286 -12.4543 71.9276
CA -2.29169 -24.8653 20.5262
CA 11.8284 -11.6053 75.585
CA -1.03565 -3.25982 31.6497
CA 10.3462 -36.6861 47.423
CA -8.21975 -30.0615 48.5853
CA -16.8221 -17.7405 81.918
CA -13.2603 -16.2458 76.8021
CA 5.89308 -16.461 77.4219
CA -19.8834 -14.8981 39.1412
CA 35.2021 1.61004 56.1336
CA -11.8925 -24.8397 70.7255
CA 15.2042 -36.289 48.7707
CA -2.7162 -2.10585 55.4183
CA -27.2945 -8.89295 36.6603
CA -6.55596 -19.115 60.5503
CA 20.1358 -8.84506 53.99
CA 28.9719 -4.3952 48.5015
CA -4.73512 -9.63565 60.8558
CA -1.81955 -23.645 33.2505
CA 2.84737 -9.14138 65.2282
CA -6.09687 5.26381 68.0689
CA 18.3881 -34.1364 57.0936
CA -0.135867 11.902 86.8212
CA 11.1948 -40.3403 65.0117
CA -7.4808 -16.6178 21.5528
CA 25.7198 1.58954 58.332
CA 13.23 -37.6789 49.5228
CA 7.43822 -30.3404 46.4686
CA -2.77231 12.7983 86.8076
CA -24.1326 -14.3681 22.1625
CA -8.3366 -12.2779 80.8967
CA -19.3918 -5.73651 51.7769
CA 24.1731 5.29739 59.8617
CA -1.70181 -6.84806 42.2449
CA 13.0962 -29.7819 50.5292
