489

CA 11.522 -16.7468 54.556
CA -23.043 -16.4185 52.5101
CA 8.80311 -5.43667 54.787
CA -14.1733 -18.8299 71.8532
CA -29.3925 -16.1242 34.7771
CA -8.02629 11.4374 74.0935
CA 0.519634 -17.4304 64.4577
CA 10.3939 -42.0317 59.5977
CA 6.63571 -6.70399 38.3427
CA 17.0021 0.143008 49.0096
CA -12.1929 13.5894 69.0134
CA -24.185 -14.238 70.3853
CA -28.1916 2.54028 58.1148
CA 28.4637 4.10317 60.9268
CA -2.90079 -28.4549 66.9737
CA 5.09091 2.09542 61.1924
CA -25.9941 -2.24571 58.6248
CA 3.11513 0.338487 53.7318
CA -21.2077 -11.5125 56.4258
CA 12.0108 -16.579 48.9768
CA 8.12041 -32.1918 52.7246
CA -29.5862 -20.8727 47.9435
CA -12.4042 -24.8547 57.8791
CA 3.36932 -2.16862 35.1318
CA -12.3541 -3.56307 75.2584
CA 1.65024 -0.85709 69.3011
CA 10.4652 -10.4749 53.2568
CA 7.98315 -38.7571 43.6507
CA -5.06833 -18.5956 11.6871
CA -13.4561 11.085 63.9911
CA -2.27876 -18.8908 12.9243
CA -14.1198 -17.2898 36.6348
CA 0.726628 -6.35619 76.7519
CA -25.2295 -24.7338 50.2236
CA -10.6674 -11.2385 41.7502
CA -0.227188 -14.6823 65.4143
CA -11.9088 -6.93183 50.62
CA -27.201 -16.5204 36.9421
CA 4.9076 0.227213 62.6577
CA -6.05473 -0.319421 63.7912
CA -34.9516 -15.6834 59.1721
CA -8.44954 -20.2923 66.8358
CA -1.91634 -34.0246 50.5795
CA -9.19741 8.41544 67.6587
CA -17.4421 -21.7095 36.3406
CA 15.9662 -24.6173 56.2747
CA 0.673305 0.0948505 53.503
CA -12.4855 -13.1041 66.2433
CA -3.94845 -24.1732 48.1925
CA -7.03586 2.16556 71.3092
CA 1.97634 -32.5871 49.8009
CA -8.37427 -34.7494 55.8455
CA -34.1958 -20.002 57.2774
CA -8.88085 4.44967 55.6668
CA -11.2736 2.98273 69.8925
CA 5.41241 -14.246 79.8293
CA -10.3776 -30.5841 68.0103
CA -31.391 -1.39234 57.7904
CA 10.7997 -32.5 51.9092
CA -29.4641 -3.6867 54.4436
CA 7.76486 -12.7936 48.7956
CA -21.2857 -10.0543 54.8743
CA -31.2949 -23.4751 50.2304
CA -4.20151 -21.3605 58.0031
CA -9.29829 -15.0268 36.6118
CA -7.63976 -9.24942 57.5733
CA -11.9875 -10.071 56.1931
CA 1.74657 -34.0846 57.088
CA 13.5486 -12.0247 56.9107
CA -22.384 -24.585 35.9883
CA 5.82724 -25.0885 31.1604
CA -18.1897 -39.4375 70.137
CA -12.6046 -12.3239 61.8935
CA -15.1367 -9.56119 54.2334
CA 0.270445 -5.9905 37.677
CA 6.85229 -36.4736 48.7772
CA 2.41689 0.400227 62.6669
CA -28.5649 -6.35697 57.2989
CA 10.2311 -11.1834 73.5266
CA -3.05614 -17.8255 22.1188
CA -10.5923 -6.63352 30.0071
CA -2.89853 -8.79671 68.753
CA -6.53699 -11.701 25.9123
CA -15.5848 -32.6812 69.3583
CA 6.73576 -29.7382 43.8655
CA 5.0521 -13.6201 55.0943
CA 1.96537 -21.9634 24.1143
CA -2.89686 -18.9216 18.6332
CA -8.53494 -28.7642 54.3746
CA -8.51457 -10.7153 44.6266
CA -8.36734 -11.153 28.5884
CA -10.9734 -2.16624 66.67
CA 3.21844 -7.07027 46.6474
CA 1.86756 -24.0939 30.9837
CA -10.0177 12.9813 65.5561
CA -3.33918 -18.3374 30.0263
CA 1.04781 -8.12316 68.1175
CA 15.8653 -21.8082 50.8955
CA 7.99715 -17.1691 83.0756
CA -24.0602 -12.5648 60.8333
CA 14.5326 -3.51906 55.1941
CA -6.81564 7.23664 59.5944
CA 10.7596 -9.86994 74.9909
CA -17.3844 -33.221 68.5804
CA 0.698362 -18.1448 19.3212
CA 2.36369 -21.0112 48.4755
CA 10.1882 -2.68166 38.299
CA 25.1024 5.31483 49.8746
CA -20.7134 -15.0705 32.291
CA -32.7642 -16.6344 41.0695
CA -0.908751 -24.1552 20.0779
CA 6.4941 -15.0709 63.6761
CA -1.33952 -17.497 13.8291
CA -15.1409 -36.6037 60.7247
CA -0.00806253 -6.24969 60.7918
CA -27.5428 -16.4802 46.0679
CA -1.53852 -17.0848 10.7265
CA 15.8571 -8.42105 83.5313
CA -6.19233 3.86532 60.3187
CA -1.08955 -17.3401 59.9225
CA 7.22638 3.46478 64.4641
CA -24.8657 -17.6552 47.8481
CA 27.1854 -22.4477 58.4499
CA -4.18798 -18.9809 15.7157
CA -8.9117 -10.2971 53.7846
CA 3.526 -1.96395 51.7587
CA -13.6503 -13.2821 31.6728
CA -6.28042 -10.1869 64.0481
CA 18.9469 -14.1302 47.0853
CA 9.7433 -3.60694 63.8471
CA -5.34605 -20.3369 14.0374
CA -5.69339 -4.7968 30.3245
CA -2.86372 -24.6727 20.6679
CA -9.70984 -21.5738 59.4052
CA -1.77935 -13.1143 69.1689
CA 1.98655 4.5209 63.6955
CA -36.7321 -20.6422 61.0475
CA -1.18275 -23.1784 62.6288
CA 11.1998 -11.2193 85.0293
CA -31.889 -26.076 49.1341
CA -15.7025 -12.2545 46.5343
CA -10.9829 -28.4303 52.8178
CA -15.1149 -14.5458 53.5536
CA 0.468974 -25.3443 27.366
CA 2.29655 -22.8123 21.3844
CA -2.80275 -8.09242 42.1055
CA -4.79226 -39.2468 50.3854
CA -14.8511 -28.571 55.5596
CA 13.8316 -12.9384 50.475
CA 9.18748 -39.3114 53.5981
CA -20.0474 -34.8957 55.4401
CA 4.91733 -10.8992 51.7149
CA -2.04086 -11.8587 54.6506
CA -3.13955 -16.1445 33.8898
CA -37.0189 -15.347 52.6911
CA -13.0821 -26.9819 54.3626
CA 1.86705 -16.1588 69.5618
CA -11.4764 6.56789 75.8824
CA -17.367 -17.6808 69.5689
CA 13.8336 -8.78301 76.7389
CA -13.1997 -10.8309 47.3028
CA -12.0866 -13.9127 43.0429
CA 15.6458 -10.8257 73.1661
CA -9.87152 -23.4394 56.3631
CA 11.2783 -6.9611 53.4791
CA -3.80424 -26.5175 27.2124
CA 5.27237 1.57048 58.6547
CA -10.3826 -5.03586 50.8027
CA 12.5844 -7.67869 45.9307
CA -5.9757 -11.6573 61.0502
CA -16.5193 -6.18961 48.397
CA -19.4253 -21.1882 40.0138
CA 12.9743 -34.0131 49.3374
CA -2.38076 -18.374 61.7314
CA 4.94708 -18.6633 63.4566
CA 4.18978 -13.3491 66.0581
CA -31.666 1.1246 58.8969
CA -13.5092 -38.8974 73.2271
CA 12.3172 -12.9222 44.209
CA 3.59749 -37.3409 42.9191
CA 0.169377 -29.7171 70.6996
CA -23.7138 -17.8927 38.3519
CA -7.12045 -17.9698 70.8356
CA -25.8386 -12.3683 47.7958
CA 16.8183 -9.96056 69.4069
CA 1.59864 -12.4835 44.5193
CA 10.7356 -3.48136 73.8151
CA 5.70234 -36.9602 58.3918
CA -24.9291 -3.89518 56.4819
CA 3.23507 -2.16152 63.2071
CA 15.3078 5.12406 50.9928
CA -14.1959 -22.3587 35.8693
CA 2.6391 -34.5821 46.7695
CA 10.5741 -8.49191 44.9831
CA -5.41848 -13.3666 57.679
CA 21.5509 8.20347 49.8512
CA 19.3404 -24.9113 49.8672
CA -8.14936 -14.9263 81.256
CA -21.6601 -35.7096 69.4465
CA 18.1863 -5.98874 46.2376
CA -19.8405 -13.2436 53.0402
CA 9.22648 4.96613 67.3101
CA -16.0421 -17.8204 70.8857
CA -3.62329 -28.7354 70.8107
CA -12.1864 -20.7567 80.4679
CA -7.45189 8.62619 57.3398
CA 14.4716 -14.8633 44.343
CA -20.4049 -9.70653 50.8987
CA -15.9017 -7.19264 50.3047
CA 15.9951 -18.478 49.0169
CA -3.91964 -23.4551 15.4533
CA -24.4844 -6.79994 50.7841
CA -3.27675 -18.2419 36.6759
CA 6.83308 -3.65398 36.9836
CA -9.01912 6.0697 56.4566
CA 15.6168 -23.6933 50.6733
CA 6.03087 -30.0895 50.2977
CA -23.2873 -5.33464 58.1936
CA -6.73008 -7.37461 36.7714
CA -11.4659 -37.2095 57.5721
CA -12.3323 -9.14621 45.0577
CA 10.1737 -26.7492 57.1304
CA -14.6922 -3.65494 43.2088
CA -9.91187 -23.7043 79.3787
CA 9.52049 -6.33095 58.009
CA -2.93179 -21.8298 20.5985
CA -11.0715 -24.0139 33.2041
CA -18.2463 -12.8555 64.3606
CA -11.9941 -11.6926 82.4845
CA 19.4346 -21.7635 59.1258
CA 11.9833 -9.29602 40.7769
CA -7.60137 -14.729 74.999
CA 0.881821 -9.3676 51.0805
CA -15.3266 -16.4237 69.8615
CA 18.6134 -3.845 54.6307
CA -13.9927 -11.632 58.1614
CA -14.1133 -19.2295 85.7519
CA -15.7817 -9.82822 51.4351
CA -12.262 -21.9445 67.484
CA 2.66632 -11.2579 79.2425
CA 8.06751 -15.2648 79.9154
CA -9.91569 -8.91719 31.3155
CA 4.31063 -11.6601 75.3649
CA 23.2816 -23.9046 59.9362
CA -25.2691 -23.9476 47.4077
CA -16.3943 -28.9389 83.2213
CA -29.5349 -17.103 45.1598
CA 12.4216 -4.69613 67.9045
CA -7.78452 9.67698 59.4593
CA -0.780553 -13.5363 55.9523
CA -6.35519 -14.8074 71.437
CA -20.7963 -15.8529 40.7892
CA -5.01282 -20.7609 70.7928
CA -15.1939 -12.7076 81.4121
CA 16.4505 -4.09439 55.2826
CA -4.56643 3.32463 66.3017
CA -8.44398 -17.6321 39.5047
CA 12.6491 -29.0749 47.4997
CA -28.6586 -16.4824 47.7114
CA -22.441 -13.9158 54.6658
CA -2.40874 -19.1569 69.1761
CA 0.195709 -11.2835 48.0753
CA -9.71934 9.39319 58.8308
CA -18.6624 -17.4436 40.2268
CA 2.61585 -18.9291 19.0838
CA -27.6924 -2.7212 62.4104
CA 5.3795 -6.91369 52.3434
CA 4.43262 -27.0285 29.0332
CA 19.4947 -19.2138 50.0753
CA 5.54097 -18.8211 23.0589
CA -3.06683 -38.2532 50.7633
CA 3.35657 -18.3838 45.8584
CA -11.7472 -34.3979 68.5264
CA -15.581 -36.7584 66.6097
CA -11.8124 -34.9605 57.8577
CA -31.6925 -15.5457 38.7083
CA -6.95723 -8.20556 34.4809
CA -7.83814 -18.3388 64.2471
CA -29.4716 -13.5489 53.0003
CA -6.40991 -14.9015 63.0477
CA -14.3674 -2.37497 48.3492
CA -7.16975 9.18684 55.6396
CA -1.25544 -21.4914 31.2693
CA 2.77493 -6.01021 51.2487
CA 2.03578 -12.1238 81.6846
CA -17.5993 -19.5496 51.0022
CA 16.2779 -5.57148 72.4058
CA 10.9659 -14.5719 81.7173
CA 3.43427 -11.1639 80.9242
CA -16.0578 -20.8788 85.6378
CA -3.67378 -4.87105 38.2255
CA -26.565 -14.5571 35.442
CA -5.39657 -39.5751 48.064
CA -5.81417 5.5005 59.3337
CA 8.00086 -16.2255 85.5844
CA 0.208647 1.48996 61.1152
CA -6.3945 10.8523 63.0339
CA 8.47192 -34.1239 42.914
CA 2.82753 -21.9243 27.4484
CA -7.83449 -6.54634 33.5271
CA -14.583 -19.6858 67.9231
CA -4.41547 -7.32661 38.6266
CA 9.45558 -8.38113 60.7276
CA -31.0249 -22.5658 46.8958
CA -1.58015 -24.9038 30.5738
CA 5.31082 3.90047 65.1094
CA 23.1044 -1.74529 54.67
CA 16.9469 -26.0943 47.5786
CA -8.85333 -39.6809 54.7206
CA -2.12729 -2.74457 43.6639
CA -11.3243 -22.4521 65.8203
CA 3.99733 -10.3915 77.6322
CA -5.20469 -13.7203 35.7397
CA -10.7294 8.53002 76.6542
CA 0.803801 -15.0007 66.9565
CA 2.48445 -0.794489 49.5942
CA -7.49057 3.11753 55.6673
CA 19.333 -1.5358 48.3212
CA 13.7255 -18.8994 47.1022
CA -8.77589 -16.417 85.8564
CA 8.81108 -40.1733 45.9759
CA -15.5912 -35.2247 58.9234
CA -1.4825 -6.70547 70.2084
CA 14.0922 -16.6337 45.7458
CA -12.2019 -1.54216 71.7919
CA -5.75867 -22.0823 16.0746
CA -9.30665 -13.4683 48.7282
CA -29.9342 -14.4602 36.02
CA -0.919158 -31.0198 64.9625
CA 12.3241 -12.1476 54.6479
CA -10.8383 -6.94986 34.4256
CA 12.3549 -8.42146 81.3852
CA 15.6495 -5.23002 70.7428
CA 2.52639 -5.95946 67.3472
CA -6.09359 -21.1803 47.8955
CA -22.1152 -9.5281 59.4563
CA 13.0306 -8.64119 70.9377
CA 1.04236 -12.0133 70.6022
CA 3.0369 -5.515 71.0306
CA -12.823 -8.70054 58.8231
CA -3.5255 -4.03494 31.2172
CA -16.0362 -22.4672 66.3361
CA -22.1779 -19.6733 36.8161
CA 0.727738 -24.7328 15.7778
CA -11.6556 -21.2413 64.2137
CA 18.3115 -22.7292 47.6159
CA 14.8526 -1.2746 75.0406
CA -7.06534 -19.6343 15.195
CA 10.4336 -15.9082 87.2648
CA 6.65839 -36.0716 56.0209
CA -7.07387 -35.8264 48.6083
CA 14.9783 -4.42083 68.8763
CA -9.82695 -20.6285 63.4957
CA -7.09537 4.86479 71.8507
CA -11.3029 -6.88769 42.8653
CA -0.68583 -8.74777 66.9397
CA 7.01568 -6.48405 58.3334
CA -27.5971 0.540663 64.0348
CA 15.2182 -12.8023 70.9506
CA -9.20521 -9.63601 64.5939
CA -15.4981 -32.6845 58.1628
CA 3.84166 -19.2965 76.7039
CA 13.7418 -15.3982 49.0435
CA -7.91469 -19.7545 36.15
CA 0.0648231 -5.77037 63.1118
CA -0.67563 -20.0853 66.008
CA -11.4887 -21.4831 71.8117
CA 12.3553 -41.3668 60.043
CA -12.2759 -18.1919 76.3198
CA 10.3048 -14.8716 72.7455
CA -12.8233 -13.8795 89.3982
CA 1.3295 -15.498 58.2802
CA -24.8806 -20.125 37.0743
CA -11.2006 2.94489 72.5718
CA 17.3366 -1.11371 52.6027
CA -4.444 -24.494 27.6291
CA -28.8222 -3.78356 60.8639
CA 0.34431 -21.1693 28.5298
CA 11.0495 -5.5328 83.8648
CA -9.53653 -5.98092 56.1954
CA -16.9948 -36.136 70.4232
CA 5.59868 -10.3786 67.0494
CA -6.83871 -8.6127 54.3405
CA 6.91313 2.16481 62.3695
CA 20.1172 -13.9031 45.2852
CA -1.69756 -22.8574 28.5166
CA 1.20297 0.823071 65.7809
CA -16.9089 -14.917 38.5911
CA -29.9164 1.70109 57.4323
CA 12.4271 -35.4608 54.7972
CA 5.87198 -13.4192 81.3903
CA -8.79937 -8.36188 40.3624
CA -27.7777 -13.2865 32.5941
CA -19.5445 -15.1226 68.8457
CA 2.8211 -17.9167 65.0689
CA -2.36306 -11.4232 79.4719
CA 18.5105 -10.7982 73.3607
CA 13.7043 -10.5168 77.7396
CA -30.1317 -14.7331 57.1797
CA 7.88214 -4.32606 35.4221
CA 5.46831 -20.9535 19.949
CA 9.15612 3.55633 63.8899
CA -15.1302 -12.3425 54.2725
CA -23.8227 -15.9752 36.9254
CA -8.93683 -4.18763 67.2328
CA -29.7046 -13.9238 47.9298
CA 10.3738 -37.7301 57.983
CA 12.5949 -39.2605 47.0935
CA -23.6265 -23.2739 36.7088
CA 13.6069 -9.73346 52.8091
CA -7.31384 -10.2623 27.2272
CA 4.84074 -15.361 68.2961
CA -7.25187 -20.8865 13.8127
CA -21.3533 -17.8608 64.0165
CA -4.37472 -11.3442 57.333
CA -24.809 -3.42848 60.5274
CA -7.21335 -23.8016 73.8802
CA 14.4934 -12.1241 85.7797
CA -12.4989 -7.92639 55.217
CA 4.40471 -9.15975 52.5836
CA -19.0179 -35.4822 60.6456
CA -9.58209 -17.8571 84.3613
CA -22.3491 -19.7914 44.1156
CA -1.27734 -4.43123 41.243
CA -27.3801 -16.7584 38.8221
CA 0.397781 -28.3383 30.5039
CA 14.2908 -0.65485 54.9639
CA -2.39643 -1.01811 72.3673
CA 11.8659 -33.3778 41.1721
CA 1.86401 -26.8812 62.9768
CA -13.2223 -16.9594 75.3137
CA -23.0102 -19.8153 46.7623
CA 8.56303 -1.20511 61.988
CA 11.6362 -40.4298 50.7092
CA -24.055 -9.93789 60.4573
CA 7.74513 -43.2643 51.6088
CA -3.60631 -8.5574 64.3681
CA 18.991 -28.8674 57.611
CA -8.05755 6.48171 58.4126
CA 6.72725 4.72654 66.1505
CA 14.5066 -5.18325 85.3292
CA -5.39539 -28.634 69.6639
CA -15.3539 -38.3264 61.8536
CA -13.1534 -31.8017 56.3879
CA 5.39051 -15.5704 74.9922
CA -36.9341 -17.3312 54.8158
CA 13.7131 -37.7604 59.9231
CA 12.9933 -26.5484 54.4441
CA -30.31 -18.8709 47.1156
CA 7.12604 -8.96984 66.6027
CA -17.2921 -22.0966 83.3228
CA -1.01228 -19.6971 62.9322
CA -30.8015 -14.7069 44.7893
CA -19.3566 -17.571 55.0952
CA -10.3205 -12.4538 25.6999
CA -24.4779 -17.1908 41.5997
CA -10.2296 8.47549 54.7077
CA -17.9651 -39.7283 75.2132
CA 2.9425 -14.9376 54.857
CA -12.2556 -14.1942 82.6269
CA -21.9834 -15.2118 57.3394
CA -9.60991 -15.5203 71.3558
CA -11.2334 -24.217 35.6444
CA -9.30976 -13.9965 87.7719
CA 15.3042 -18.4704 53.6158
CA 12.7607 2.95951 60.5499
CA 9.53145 -9.06771 43.3348
CA -12.5752 -8.51354 49.4898
CA -11.242 -3.71405 76.8958
CA 10.5409 -5.34663 38.1806
CA 11.3701 -4.68114 70.9864
CA -17.9132 -11.0997 63.1838
CA -2.56396 3.83748 62.3537
CA 0.202505 -16.6948 43.4176
CA -11.2416 -12.4692 86.3669
CA 2.26995 -6.47108 59.9343
CA -5.20759 -15.4326 61.6134
CA -5.97692 -24.4539 62.1644
CA 1.29202 -10.7799 45.8643
CA 2.68553 -22.9056 17.1594
CA 4.04318 -2.71857 68.9259
CA -14.9129 -33.9618 60.2512
CA -15.1984 -15.0022 65.6424
CA -9.93382 5.00857 73.3716
CA -12.6273 -12.7565 54.6206
CA -10.5056 -9.94663 28.8287
CA -2.03014 -21.9749 16.7089
CA 9.22404 -5.83719 60.6077
CA -13.2195 -10.9549 43.3876
