489

CA 5.42291 -24.0576 32.1133
CA 21.569 -13.9159 59.4052
CA 13.6598 -11.2751 74.1987
CA -15.2609 -12.4957 64.4116
CA -9.27005 -29.3722 61.55
CA -15.5266 -22.7997 58.5965
CA -8.43826 -15.5833 72.7694
CA -10.8466 -2.69818 33.8797
CA -8.07553 -22.365 60.6578
CA -11.6726 9.52214 57.5801
CA 0.421411 -3.62725 34.0683
CA 1.69073 -20.4511 51.3534
CA 15.017 -6.89333 78.2378
CA -13.0137 -15.0566 41.9661
CA -24.9768 -9.71748 68.4226
CA 3.22008 -5.09478 46.9784
CA 5.13668 -15.8284 65.6151
CA -8.04911 -41.2573 60.6485
CA -21.2077 -11.5125 56.4258
CA -36.3782 -18.8569 45.9968
CA -14.6835 -22.1768 67.1012
CA 16.2618 -20.7631 53.8189
CA -5.62119 -13.9415 24.5846
CA -29.2192 -15.1101 46.2092
CA -27.9124 -15.3801 59.3217
CA 16.3361 -25.7215 50.0881
CA 1.51055 -7.07438 49.0597
CA 14.0704 -11.086 82.6991
CA 2.85258 -6.42987 33.6036
CA 3.59641 -3.09588 50.1917
CA -8.07482 -6.02142 37.9648
CA 10.8632 -8.40618 74.4283
CA 11.773 -38.4275 54.4607
CA -13.5102 -7.66151 40.9348
CA -10.6674 -11.2385 41.7502
CA 13.9811 -9.51515 59.1357
CA -17.746 -0.81199 49.5651
CA -27.201 -16.5204 36.9421
CA 10.5683 -26.8337 30.2581
CA -6.05473 -0.319421 63.7912
CA -18.5963 -22.3189 51.3114
CA -13.0252 8.81708 73.3046
CA -1.91634 -34.0246 50.5795
CA -9.19741 8.41544 67.6587
CA 2.22205 -36.7812 44.1565
CA 3.06373 -37.8542 47.7565
CA -5.21646 0.551043 55.986
CA -8.58317 -31.5347 62.3321
CA -35.8264 -14.8169 54.4007
CA 4.62819 -35.264 47.3926
CA -0.0937176 -8.63514 38.8031
CA -7.75079 6.17407 80.6585
CA -28.7053 -19.3848 47.5269
CA 2.25349 -5.33403 48.7383
CA 5.15205 -18.7757 77.8615
CA -26.4659 -21.132 49.552
CA -15.0967 -22.1244 61.6763
CA -19.5132 -8.61484 58.0704
CA 1.51367 -33.0042 64.1647
CA 24.0604 7.83342 60.3673
CA 7.76486 -12.7936 48.7956
CA -31.1445 -3.85639 58.1274
CA 9.218 -19.3436 52.7978
CA -24.7165 -21.0509 48.8631
CA -16.1938 -20.7252 52.108
CA 5.33101 -38.9572 56.8987
CA 14.262 -11.763 71.9994
CA -3.61955 -10.3641 39.134
CA 10.1064 -40.5599 52.5651
CA -17.7095 -11.9966 30.1825
CA 1.38849 -14.1429 48.4936
CA -7.12634 -5.06285 74.5294
CA 12.0097 -10.578 82.6129
CA -10.5091 -15.94 79.0096
CA -27.0972 -8.36905 50.2537
CA 6.85229 -36.4736 48.7772
CA 15.5436 -1.77672 53.9223
CA 18.6205 -15.6692 59.2116
CA -18.0853 -34.4876 72.9525
CA -3.24749 -26.3081 12.1948
CA -10.5923 -6.63352 30.0071
CA -2.89853 -8.79671 68.753
CA -13.4421 -27.7859 58.7677
CA -15.5848 -32.6812 69.3583
CA -28.116 -0.25267 57.9432
CA 9.87648 -7.82325 68.4881
CA -20.1131 -17.3048 32.5552
CA -24.335 -13.5023 54.3607
CA -10.1229 11.8113 75.3376
CA -12.7268 2.51516 75.2793
CA -3.25748 -10.9861 36.3164
CA 3.06817 4.82985 65.651
CA -2.98708 -31.4988 68.4814
CA 12.4535 -34.0093 47.4043
CA -14.8879 -7.82481 52.975
CA -4.27299 -9.35488 28.1415
CA -40.196 -17.0009 51.3959
CA 11.9969 -23.1105 54.8248
CA -2.40316 -28.6866 25.508
CA -22.6317 -9.00184 54.348
CA -34.405 -21.3974 44.0373
CA -30.7808 -14.187 61.9496
CA 9.53454 -26.7241 46.2541
CA 3.94664 -40.9699 43.7929
CA 11.6828 -8.94772 51.9634
CA 2.36369 -21.0112 48.4755
CA 0.126967 -23.8386 34.6835
CA -13.2487 -12.4091 83.547
CA 8.52439 -7.62771 52.0428
CA 15.1806 -38.8578 48.2456
CA -0.908751 -24.1552 20.0779
CA -14.6194 -14.8908 73.6064
CA -14.2609 -8.28573 66.9856
CA 16.29 -12.814 52.0852
CA -25.2494 -12.7535 67.3958
CA 4.76696 -0.867387 43.9822
CA 2.42955 -2.14556 47.7515
CA 15.8571 -8.42105 83.5313
CA -6.19233 3.86532 60.3187
CA -19.4057 -18.0087 44.3504
CA 19.0889 -16.261 43.1584
CA -24.8657 -17.6552 47.8481
CA -2.71488 -3.46129 34.7669
CA -6.01528 -4.2964 68.9173
CA -1.77695 -7.11806 59.691
CA 6.48311 -4.92734 74.3275
CA 3.2382 -5.49181 39.118
CA -12.4512 -21.5102 55.5893
CA -4.57102 3.48662 72.4001
CA 9.7433 -3.60694 63.8471
CA -5.34605 -20.3369 14.0374
CA -5.28403 -20.0784 18.6684
CA -4.67702 6.31084 76.8331
CA -17.179 -38.8113 74.7322
CA -1.77935 -13.1143 69.1689
CA -10.0136 5.16491 59.7161
CA 11.5276 -2.00133 53.2234
CA -1.18275 -23.1784 62.6288
CA -3.97527 -19.7537 20.4899
CA -12.3425 -24.4334 78.3889
CA -0.260159 -10.5878 69.6164
CA 18.8193 5.16057 52.1193
CA 27.1214 -1.58166 77.1162
CA -11.2712 9.99063 54.3944
CA 2.29655 -22.8123 21.3844
CA -2.80275 -8.09242 42.1055
CA -4.79226 -39.2468 50.3854
CA 17.9578 -3.12413 89.4719
CA 13.8316 -12.9384 50.475
CA -5.2269 -32.9697 55.6946
CA 2.15545 -23.8917 53.4528
CA 4.91733 -10.8992 51.7149
CA -14.6793 -2.75616 68.5533
CA -2.42451 -5.17197 41.2934
CA 3.96804 -33.5565 65.1051
CA -9.75593 -25.5121 63.5624
CA 1.86705 -16.1588 69.5618
CA -3.95988 -20.5599 62.1748
CA 7.00457 -28.3075 59.6903
CA -15.9115 -13.481 85.9921
CA 1.33279 -1.05476 49.7543
CA -12.0866 -13.9127 43.0429
CA 11.9782 -9.19121 62.0281
CA 4.03594 -21.2853 49.2245
CA 11.2783 -6.9611 53.4791
CA -3.80424 -26.5175 27.2124
CA 12.6155 -10.2002 47.5709
CA 26.8668 -3.74755 78.8101
CA -15.8305 -2.4805 55.2347
CA -3.76338 -19.8805 11.9218
CA -12.8477 -4.93404 41.8347
CA 0.137171 -21.9791 54.4693
CA 3.29923 -21.2158 29.6949
CA 1.67509 -29.633 72.3853
CA 3.06803 -31.4434 65.7485
CA 4.73771 1.63373 63.8879
CA -15.6231 -25.6387 58.8886
CA -12.7447 -8.54558 42.4387
CA 8.9507 -6.65338 44.0217
CA 8.60116 -17.4234 80.4527
CA 4.46748 -31.8681 43.7791
CA 14.8449 -33.2815 52.4846
CA -18.0365 -9.71959 52.4919
CA 1.54649 -25.6213 37.2467
CA 5.54704 -35.5804 64.614
CA 14.6955 -5.82759 75.0926
CA -10.7169 16.5895 58.0383
CA -2.06688 -14.5477 49.8484
CA 6.68158 -5.19635 64.8022
CA -36.5089 -21.9092 54.3825
CA 15.3078 5.12406 50.9928
CA -10.0603 2.84905 74.008
CA -12.8682 -22.9854 58.5334
CA 12.2655 -41.9871 49.0468
CA -0.630377 -6.08515 46.439
CA 7.08364 -5.763 57.1481
CA 25.3947 9.07346 60.0831
CA -7.77453 -4.84348 23.625
CA -16.9797 -16.3764 29.8028
CA -14.1326 -19.7195 51.4712
CA -19.8405 -13.2436 53.0402
CA 9.22648 4.96613 67.3101
CA -17.1887 -13.8373 66.5136
CA 11.7023 -26.1038 48.1387
CA -12.1864 -20.7567 80.4679
CA 0.841186 -1.95472 35.0306
CA 14.4716 -14.8633 44.343
CA -26.1594 -15.7701 61.594
CA 4.76079 -4.00876 43.8146
CA 3.1187 -37.8573 58.208
CA -3.91964 -23.4551 15.4533
CA 5.98342 -30.9952 42.5328
CA 25.985 5.0491 58.4641
CA 7.63102 -9.31985 81.0926
CA -15.2229 -0.169644 45.6792
CA 15.6168 -23.6933 50.6733
CA -1.6872 -33.5148 54.0265
CA -16.9019 -18.2774 54.5593
CA -9.22005 -18.7879 72.9732
CA -20.6849 -6.8002 51.8693
CA -19.4671 -17.7957 39.5853
CA -14.1374 6.23258 69.5864
CA -14.6922 -3.65494 43.2088
CA -23.4545 -24.2128 46.8973
CA -10.3158 -35.1755 62.7067
CA -2.93179 -21.8298 20.5985
CA -6.00027 11.0511 59.8745
CA 6.30122 -7.25841 81.6034
CA 16.7068 7.74286 48.8653
CA 5.32092 -14.9764 63.5765
CA -26.3029 -15.1787 41.5841
CA -0.976597 -24.6229 32.824
CA 11.8806 -8.79209 77.2824
CA -8.50294 -27.1239 58.675
CA 2.89966 -28.5 71.4008
CA 11.8461 -10.1789 73.5634
CA 8.67174 -10.2383 56.9096
CA 4.34268 -20.6685 32.3031
CA 14.9007 -30.6072 43.4383
CA -9.91271 -16.1899 38.4851
CA 1.10125 -26.191 30.5488
CA -19.5471 -17.3742 25.7703
CA 1.03849 0.0531185 61.3666
CA 11.1579 -19.2471 50.5058
CA -3.33338 4.80304 60.3131
CA -10.1842 -13.8167 61.7445
CA -14.3684 1.85732 56.91
CA 3.35878 -8.96647 72.0145
CA -7.78452 9.67698 59.4593
CA 2.65428 -20.0244 67.8568
CA 0.759174 -24.9259 24.2346
CA 2.16337 -8.57515 47.9877
CA -7.50755 -0.42083 65.1842
CA -14.3808 -23.6382 60.6761
CA -5.75872 -22.7502 71.7491
CA 1.53839 -11.4734 43.131
CA 15.8936 -6.09543 87.5719
CA 12.6491 -29.0749 47.4997
CA 16.698 -10.6894 47.9231
CA -7.24284 -23.6945 62.5222
CA -26.2963 -3.05921 57.5658
CA -9.82407 -23.1187 64.567
CA -9.71934 9.39319 58.8308
CA 1.08121 -21.1843 17.3255
CA -17.6086 -5.82322 52.4187
CA -10.5981 -36.2589 59.5237
CA 3.59478 -5.62976 37.1162
CA -22.5596 -14.8251 54.466
CA 12.1812 -3.23693 59.6326
CA 29.0815 8.54421 60.852
CA -3.06683 -38.2532 50.7633
CA 3.35657 -18.3838 45.8584
CA -11.7472 -34.3979 68.5264
CA 8.94015 -35.2519 47.65
CA 4.63441 -22.9201 51.4308
CA -31.6925 -15.5457 38.7083
CA -37.3432 -15.3839 50.5163
CA -0.425636 -12.9322 64.1375
CA 14.7824 -18.951 52.0158
CA -24.279 -12.8901 35.9958
CA -13.1449 -19.5672 63.3908
CA -4.59741 -4.33203 26.9555
CA -29.5209 -3.72 54.4357
CA -9.93092 -19.5133 37.1085
CA 12.3026 -8.28877 47.3135
CA -3.71021 -22.0963 30.9892
CA -1.09744 -27.4008 55.8886
CA 10.8136 -8.57424 54.9885
CA 11.8672 -5.2437 79.9226
CA 20.1873 4.49676 55.5716
CA -3.67378 -4.87105 38.2255
CA -35.2627 -14.2857 57.6697
CA 20.7504 2.5173 54.2361
CA -8.40666 -11.9253 26.4014
CA 14.7908 -10.0492 71.4296
CA -26.0023 -19.8905 39.9309
CA -16.6986 -23.3912 61.5047
CA 0.936947 -0.403622 44.3843
CA -2.23046 -11.0242 67.5224
CA -23.0163 -11.4874 68.7601
CA 10.6486 -31.8025 46.9463
CA -4.41547 -7.32661 38.6266
CA 2.68704 -17.4038 30.9714
CA -31.0249 -22.5658 46.8958
CA 20.5099 -16.0937 59.0022
CA -7.10645 -2.42606 29.342
CA 19.1557 -3.89701 53.844
CA 8.54811 -6.77219 47.7666
CA -9.07358 -12.1716 69.8183
CA 10.3456 -34.0542 61.5111
CA -8.20451 -36.9627 59.4007
CA -10.3597 -26.717 18.4316
CA -11.9655 12.2324 57.2209
CA -4.2314 -6.32347 59.6068
CA -6.9646 5.01207 75.4464
CA -29.2785 1.1 58.7731
CA -4.25698 -3.13684 63.8194
CA 16.3704 3.41629 51.2833
CA -0.133606 -8.54659 69.2985
CA -0.59037 -20.8625 59.2352
CA -15.3266 -20.555 70.712
CA -3.77569 -2.58818 73.4472
CA 1.20025 -25.7611 52.0465
CA 21.7365 5.79876 49.9873
CA 13.8159 -5.16371 83.9744
CA -3.76735 -17.1718 56.8386
CA -8.59951 3.77877 72.2785
CA -32.3773 -24.7623 51.41
CA -18.552 -29.3552 61.795
CA 26.3406 -3.7616 81.6226
CA 27.41 7.92889 61.583
CA -5.96517 0.44757 74.0472
CA -17.4236 -32.7932 61.8708
CA 22.1691 -3.67135 84.6371
CA -8.33094 -5.35205 63.3963
CA -9.46536 -15.6351 69.4071
CA -6.08629 2.30917 74.1784
CA -24.7455 -16.1316 57.0765
CA -21.7199 -13.2006 34.3316
CA 2.37588 -22.623 65.9783
CA -10.6147 -9.02652 59.0396
CA -7.26263 -14.7983 26.1243
CA -14.2837 -0.611249 56.7965
CA 0.727738 -24.7328 15.7778
CA -1.09905 -21.8933 18.0362
CA 4.31011 -29.0156 72.7522
CA -19.5175 -37.8084 72.9472
CA 21.7694 -2.91331 56.509
CA -25.8535 -16.4054 55.2749
CA 6.89872 -8.63646 55.5925
CA -7.07387 -35.8264 48.6083
CA -16.134 -0.275953 68.9761
CA -19.8794 -12.6318 55.1938
CA -7.09537 4.86479 71.8507
CA 14.4044 -10.2615 61.1747
CA 2.22977 -28.988 66.7249
CA 12.6507 -4.70757 63.0617
CA -9.10885 -16.6184 25.2514
CA -18.6489 -34.8896 66.2548
CA -9.20521 -9.63601 64.5939
CA -5.56676 -24.1388 61.9965
CA 3.84166 -19.2965 76.7039
CA 5.44145 -5.79835 38.8557
CA -30.8243 -0.211878 59.3722
CA -13.8589 -10.9821 66.5533
CA -9.93787 3.54047 55.8837
CA -3.19615 -30.0265 72.3611
CA 8.70113 -40.4558 53.7653
CA -12.2759 -18.1919 76.3198
CA -17.4866 -15.1958 45.8761
CA 4.14671 -1.25337 48.1258
CA 9.73194 -9.32009 66.4703
CA 18.123 -11.3181 79.4095
CA -22.1031 0.409927 48.401
CA -20.4907 -38.3399 71.4272
CA -35.8586 -20.7478 57.6296
CA -28.8222 -3.78356 60.8639
CA 1.64594 -20.9276 28.3193
CA -6.76843 -12.5504 57.0075
CA -14.8157 -40.3153 60.7431
CA 0.781525 -16.1817 74.4977
CA 13.6762 -7.87716 79.6641
CA -14.3596 8.85318 67.9168
CA 1.63819 -3.4876 63.1101
CA -9.78542 -18.2137 58.679
CA -10.1097 -36.7072 64.6634
CA 24.4667 -1.50372 81.1529
CA 22.1677 0.300396 48.1478
CA 6.29452 -32.8908 45.3502
CA 12.4271 -35.4608 54.7972
CA 15.3583 5.37294 48.5535
CA 9.9329 -4.37482 51.5351
CA -9.31523 -6.21393 58.6543
CA -19.5445 -15.1226 68.8457
CA -11.0139 -24.2055 66.7202
CA 7.99248 -35.856 52.0054
CA 6.88984 -14.2649 79.927
CA 13.7043 -10.5168 77.7396
CA -30.1317 -14.7331 57.1797
CA 3.62733 -27.3125 60.1195
CA 17.7305 -15.3944 52.8372
CA 9.15612 3.55633 63.8899
CA -15.2825 -31.6836 61.1568
CA -19.4075 -32.5656 67.9671
CA 15.4266 -11.4828 73.8446
CA -29.7046 -13.9238 47.9298
CA 10.3738 -37.7301 57.983
CA -13.0853 4.52744 54.5842
CA -11.1009 -11.517 58.5872
CA 13.499 -9.62951 80.6658
CA -13.0632 -22.5646 66.3159
CA -12.3673 0.797169 73.715
CA -29.3517 -12.9213 61.0882
CA 0.774141 -22.001 30.1326
CA -4.15368 11.3005 61.6371
CA -5.47596 -27.5104 65.6428
CA 3.50736 -30.3878 69.1592
CA 17.8181 -5.1455 83.887
CA 15.2026 -10.0327 79.332
CA -5.41013 -17.5469 20.329
CA -25.3728 -6.34786 58.9261
CA -9.58209 -17.8571 84.3613
CA 2.61201 -9.26339 69.402
CA -21.8118 -35.3641 73.1862
CA 22.9667 1.58634 56.5578
CA 0.397781 -28.3383 30.5039
CA 3.2001 -15.0328 79.836
CA -1.45505 -11.6171 43.2047
CA -6.41216 -14.1678 70.6271
CA -2.86127 -23.9849 19.9819
CA 21.7368 -0.342149 85.395
CA -23.0102 -19.8153 46.7623
CA -3.97445 -25.211 18.6504
CA 16.0205 -14.3834 42.6883
CA -24.055 -9.93789 60.4573
CA 7.68634 -5.05729 44.5811
CA 3.51033 -24.5303 28.0128
CA 5.91515 -19.1525 61.4265
CA 16.541 -29.1407 46.4689
CA 10.7481 -9.62057 75.8483
CA 8.31831 -6.78386 80.8321
CA -1.49531 -1.15932 62.8675
CA -4.77675 -5.57584 30.2635
CA 6.93079 -10.5951 68.8486
CA 5.39051 -15.5704 74.9922
CA -36.9341 -17.3312 54.8158
CA 2.10378 -22.4741 31.6679
CA -14.2537 4.95854 67.531
CA -27.8585 -4.3466 58.285
CA 7.12604 -8.96984 66.6027
CA 28.6316 10.0635 59.8935
CA -4.13417 -13.7072 27.6536
CA 7.14875 -20.0829 30.7685
CA -19.3566 -17.571 55.0952
CA -2.65856 -22.7861 26.8158
CA -12.5564 -26.5595 63.3367
CA 6.97047 -8.97809 47.6686
CA -6.11809 -19.3983 72.8833
CA -8.82998 -8.94698 45.1233
CA -12.2556 -14.1942 82.6269
CA -11.2339 -13.9353 70.8317
CA 17.2424 -17.6104 56.4486
CA -11.2334 -24.217 35.6444
CA -9.67566 13.2149 55.5189
CA -14.2698 -10.7962 42.9321
CA -0.83729 -5.4272 44.6914
CA -3.36373 -23.3918 22.6364
CA -6.61678 -8.4758 59.3991
CA -9.99733 -32.3385 57.5331
CA 22.6547 1.5139 51.3805
CA -14.8422 -6.21709 30.9753
CA -16.8809 -23.2517 50.2848
CA -15.8657 -6.34603 56.3801
CA -4.75042 -2.92877 29.5266
CA -13.761 -23.5875 63.2977
CA -16.6053 -15.9382 53.3709
CA 16.4296 -13.0612 81.7931
CA 5.97686 -17.6031 63.2671
CA 1.29202 -10.7799 45.8643
CA 15.9793 -10.8448 85.0309
CA 13.8139 -15.9119 49.5134
CA -11.4663 -12.093 67.4446
CA 4.32905 -27.1018 35.3518
CA -13.2724 -37.2071 61.8111
CA -12.6273 -12.7565 54.6206
CA -10.5056 -9.94663 28.8287
CA 9.14411 -28.8027 59.7308
CA 9.22404 -5.83719 60.6077
CA -37.3387 -13.2769 56.9085
