489

CA 1.42274 -5.41562 60.6506
CA 17.1243 -22.6853 52.3939
CA 28.9136 10.6332 52.0619
CA 17.909 0.149292 54.5886
CA -0.955475 21.3343 55.8712
CA 2.91065 -10.9056 76.4138
CA -6.95843 9.71609 68.3419
CA -0.0454443 -30.8378 72.3768
CA -4.86215 25.2721 70.016
CA 23.8568 -8.64831 77.4711
CA -26.0102 -17.8747 33.6808
CA -27.2625 -10.7777 38.5653
CA -17.6103 3.18458 56.779
CA -3.27608 19.4089 50.3474
CA -15.5137 -7.9163 62.209
CA -5.6792 26.4224 71.3301
CA 1.03223 -8.18082 79.7058
CA 13.3379 -34.2375 51.6538
CA 5.19311 1.3474 17.9947
CA -2.19791 18.8754 28.5966
CA 19.9324 -14.3604 64.3447
CA -29.7342 1.26511 66.3188
CA 1.02293 -7.54323 70.9446
CA -25.626 14.0501 36.1969
CA 14.7352 7.57225 67.9452
CA -34.6975 0.358519 62.3662
CA 38.3919 16.0476 48.1852
CA -10.8661 -28.3281 19.9047
CA 9.28463 -13.8523 80.8314
CA -14.8303 -10.9309 50.6006
CA 15.3641 5.83199 57.3276
CA 20.1007 6.52209 56.3155
CA -33.9682 -19.7199 51.2112
CA 21.1275 -20.6022 73.1851
CA -2.22933 26.7699 70.4145
CA -13.0188 4.5709 34.4673
CA -2.52212 26.3558 45.4383
CA 2.33593 -3.21774 60.1701
CA 26.0882 -12.6056 82.1682
CA -9.34256 -19.6587 29.332
CA 7.89415 5.16666 77.3773
CA 11.8221 -12.2297 68.0917
CA -25.082 1.37912 67.8504
CA 11.0755 -6.75289 60.7039
CA -1.0571 -6.58093 9.01914
CA 16.8109 16.9705 32.0341
CA -0.0312428 -35.2396 54.0469
CA -4.09184 -36.0469 78.5726
CA 15.8833 -31.0935 53.4524
CA 5.20294 -14.1024 50.2349
CA 4.48568 -9.6318 73.6032
CA 28.2581 -8.56029 69.7452
CA 11.5145 -10.7974 74.8541
CA 2.31233 -28.3237 54.0899
CA 18.536 -3.93873 54.5937
CA 20.9479 30.8172 30.382
CA -11.8932 -20.986 61.1473
CA -13.7968 18.4691 31.1347
CA 17.9644 -1.73145 69.0584
CA 15.3047 -3.30039 49.4017
CA -24.9452 11.8149 39.0594
CA 17.9914 4.06908 61.0011
CA 4.24557 -0.607764 72.268
CA -8.27077 -14.4287 83.6344
CA -18.4465 2.6454 51.5635
CA 37.5335 18.4433 52.977
CA 0.312456 -13.2663 86.5119
CA -15.5941 0.757133 52.4513
CA -1.10331 -22.0584 73.4714
CA -2.4996 23.5955 52.3786
CA -25.5588 -1.45025 39.0618
CA -12.5792 -28.278 25.8894
CA -7.90577 -5.83558 72.7877
CA 24.5369 -18.6373 70.1223
CA 5.76945 -7.9405 87.4528
CA 4.9547 -7.41759 81.9263
CA 1.8387 -27.4803 56.2888
CA 16.6416 -21.0219 67.1002
CA -28.4524 0.444118 40.5789
CA -32.6679 7.22005 72.2697
CA 28.2966 27.5121 55.1324
CA 28.2362 20.1057 48.7436
CA 15.1224 -10.9539 78.2967
CA 18.3923 -29.1945 41.1091
CA -3.80284 -7.81796 54.4626
CA 20.7996 -16.1776 66.2099
CA 23.2649 35.2577 39.023
CA -12.9784 -11.3191 61.0142
CA 1.83986 2.1602 33.3254
CA 3.01315 28.7075 70.6321
CA -5.66602 28.9013 63.0427
CA 15.6757 -7.43004 82.1436
CA -7.53563 4.44041 72.0843
CA 1.61456 -24.4632 68.964
CA -29.2455 -2.67029 63.1167
CA -12.6359 -11.4229 69.0256
CA -9.51427 -27.532 58.8893
CA 11.4316 -0.614509 50.4704
CA -2.68449 24.8211 70.512
CA -6.94957 18.1143 29.1203
CA 4.68621 -32.5514 54.6577
CA 3.79608 14.3812 87.9042
CA 5.5902 -2.49764 53.635
CA -1.3216 15.3282 46.8683
CA -9.60634 -15.3924 7.88124
CA 13.1086 13.7942 63.7608
CA 0.0422997 5.61496 32.8866
CA -11.6531 -14.5393 81.4784
CA 21.5146 7.2001 60.27
CA 20.3951 -14.6866 68.3845
CA 6.15668 -12.0235 82.6305
CA 1.57219 37.8916 63.6907
CA -7.18489 -29.3058 48.5403
CA 5.11554 15.83 61.8974
CA 3.71971 2.07233 68.4029
CA 20.2517 3.68868 54.1175
CA 38.1637 17.0488 51.0848
CA 24.2941 -11.4994 34.4616
CA 22.9601 -10.3221 65.121
CA -4.38723 14.0967 51.2007
CA -32.2378 8.41715 38.527
CA 1.32401 -26.2707 68.3666
CA -2.66322 16.699 46.9672
CA 14.7872 8.0522 60.6206
CA 8.85766 -10.2912 68.072
CA 7.34943 34.8036 43.3799
CA 13.9936 -5.10493 53.3114
CA 1.7672 15.1788 49.1828
CA 0.660508 -14.8119 77.8073
CA -6.81414 -15.1404 79.2856
CA 3.47445 20.3454 52.3986
CA 0.907921 3.16976 21.1305
CA -6.97367 18.201 51.2959
CA -1.00352 -11.7207 56.3373
CA 16.563 -17.4074 51.0176
CA 6.8908 16.621 61.7177
CA -1.94203 -8.18784 56.2981
CA -9.61056 -24.0335 17.8137
CA -32.6249 -15.3906 38.6599
CA 4.97207 1.54149 73.528
CA -1.77988 -37.6205 50.7496
CA -20.9987 1.57653 38.795
CA -2.27633 -2.60298 69.9157
CA 21.6681 -7.68376 79.9463
CA -10.9971 -18.0399 83.8725
CA 17.8708 -18.3663 73.2331
CA -14.1011 14.6916 43.3288
CA 11.205 -27.6374 39.2197
CA -7.09811 -8.64241 34.0001
CA 7.36912 18.7847 54.4352
CA -12.0472 -15.5196 63.0574
CA -16.442 -7.41593 64.7933
CA 10.5853 9.72154 55.2046
CA -25.938 16.0716 46.8526
CA -14.0831 -0.703127 47.4527
CA 6.26491 -3.58931 74.743
CA 21.4161 -14.6917 56.8243
CA -19.4801 -0.691987 40.8516
CA 2.27952 -26.2155 52.0347
CA -6.57119 12.0268 89.4538
CA -31.7884 7.6475 32.8976
CA 18.1709 -17.4587 55.9606
CA 6.7459 -12.6741 75.4578
CA -13.0859 26.2016 26.2155
CA 10.0109 -7.43363 74.9175
CA -11.2565 -5.48147 77.6059
CA -16.7305 -18.3709 31.6043
CA -14.6059 -15.1875 54.1568
CA 3.82069 -10.0425 67.4041
CA 5.48945 -13.8101 71.5774
CA -21.0331 -8.2463 53.5792
CA 24.1554 23.3255 53.3704
CA 16.3602 8.49508 58.7344
CA -16.9006 -6.86097 61.3478
CA 15.2531 -32.5704 50.0543
CA -15.1593 -24.4115 59.5515
CA 18.9911 -15.5687 74.4112
CA 20.2575 -6.43796 75.9482
CA 20.5128 -11.8512 60.7926
CA 17.2011 -34.4544 48.2862
CA -34.4722 -4.39737 61.3217
CA 11.9026 -21.1334 38.0707
CA -24.9734 13.8767 44.9072
CA 21.2168 -6.70342 60.8828
CA -17.4089 -16.3588 33.3561
CA -11.3065 6.53999 36.5358
CA 2.8006 0.0873386 32.5024
CA -32.1647 2.93167 43.527
CA 8.87295 -3.87692 62.8615
CA 19.7984 -1.79454 53.3407
CA 1.17148 13.4121 19.8904
CA 4.33466 -6.68621 49.985
CA 2.1106 28.5983 68.757
CA 7.52884 -19.365 43.4654
CA -5.07646 19.6124 27.0169
CA -5.95256 28.1136 65.7024
CA 16.1211 -6.88663 59.2901
CA -1.90137 28.849 44.5921
CA 11.0584 30.4466 42.1403
CA -3.67304 5.6325 70.7853
CA 3.68412 -2.40123 73.5086
CA 5.84633 -0.121899 73.7742
CA 4.28198 14.6026 58.1007
CA 2.96143 -5.15557 75.2915
CA 16.3941 2.94171 69.9649
CA -30.3008 8.25842 70.1394
CA -2.39043 -14.0594 52.97
CA -10.827 16.5719 30.111
CA -9.51095 -15.4015 85.2332
CA 8.10604 -0.0287705 79.605
CA -29.1887 22.5867 52.908
CA 6.72198 9.83131 57.0921
CA 8.50205 -8.46376 70.7612
CA 4.00701 -16.8014 75.9818
CA 24.1225 -14.1697 75.8882
CA 14.4746 -9.77673 76.1575
CA -9.032 -15.8389 66.8744
CA 8.63311 14.1329 62.1055
CA 26.5485 24.2995 52.7683
CA 5.35338 -12.1669 88.2403
CA 4.80609 -2.44256 86.2413
CA 29.0479 -13.029 43.0977
CA 8.36758 -13.0061 35.6855
CA -12.4996 -23.5178 60.9645
CA -6.74826 -21.6092 70.3687
CA 5.22106 -2.74468 22.8859
CA 0.757326 -13.1569 74.4963
CA 12.4565 -28.4581 53.6009
CA 13.238 -10.1227 73.4726
CA 0.667791 -26.0616 74.2616
CA 7.23101 15.0451 60.3315
CA -12.7649 3.19376 36.3052
CA -2.87974 12.7888 55.7617
CA -27.4917 -0.944067 41.8544
CA 5.65068 -3.18675 50.7523
CA 37.411 17.9544 48.1457
CA 4.43753 13.5438 23.3677
CA 0.493095 -7.28539 89.057
CA -1.6828 -11.4962 52.1046
CA 1.1771 2.47465 74.9373
CA 20.141 31.7709 40.7666
CA -1.36084 28.3158 67.5201
CA -10.9837 5.38458 34.3849
CA -2.62136 -7.21557 79.8933
CA -1.09885 13.8004 20.1334
CA 4.26804 -16.5562 46.5853
CA 19.0662 -33.6956 47.53
CA 4.11967 10.3038 24.0278
CA -6.54615 -31.3215 44.0734
CA -1.41329 -30.0102 49.7368
CA -20.713 -1.76094 44.3427
CA 21.2678 -10.5871 71.45
CA 12.7795 -20.3382 41.9265
CA -9.93804 21.614 40.0407
CA 5.63034 -7.6827 66.5044
CA 11.962 -6.23306 49.799
CA -12.2523 -31.0856 56.7656
CA 25.3261 -8.50541 80.818
CA 4.76258 24.4383 42.6787
CA 22.4197 -5.85752 64.0895
CA -16.7711 -8.92598 26.9063
CA 13.6743 -15.8871 75.7849
CA -31.8419 -0.0953485 63.2519
CA 6.2806 26.8723 38.6812
CA -28.3552 10.6005 37.7204
CA -13.6901 -14.5058 56.545
CA -7.33775 26.3359 22.6517
CA 21.9742 -16.787 62.3753
CA -2.37617 -31.5368 51.2769
CA -35.5616 -0.829535 60.9886
CA -3.662 -32.266 48.4526
CA -5.0094 12.1455 84.8554
CA 12.1922 6.62254 24.1173
CA 20.6194 -9.42387 62.9471
CA 7.4838 -13.5279 80.4643
CA -13.3986 -26.5534 23.6957
CA 3.5092 25.0881 70.3341
CA 20.2657 -13.1477 76.3889
CA 24.9162 -11.7632 74.5315
CA 9.26544 9.53919 56.9983
CA 22.7778 -14.4149 60.451
CA -9.31875 33.4437 32.8048
CA 13.6171 -24.405 37.5691
CA -10.2416 21.1016 16.8141
CA -21.1923 -18.0486 35.7679
CA 4.04639 -0.227714 74.1711
CA 0.963658 -22.3705 76.8254
CA 16.5435 -3.28648 62.4797
CA -23.6692 9.56779 41.0433
CA -4.23709 -31.3431 51.4021
CA -26.5403 2.46824 39.2783
CA -2.9735 12.9714 48.3571
CA -1.56555 -30.4909 76.3916
CA -20.7498 3.36714 40.9407
CA 5.30849 1.29406 76.1654
CA -22.0457 12.2792 35.32
CA 12.3631 -7.09667 71.1136
CA -18.5375 12.8478 41.6236
CA 17.9821 -1.16907 72.2478
CA 3.66824 -15.9982 60.2899
CA 0.855755 -12.9195 81.0707
CA -5.52307 -20.8135 71.8581
CA -18.0051 -17.6012 34.9241
CA -29.4705 4.66945 36.987
CA 2.73578 -8.24443 89.982
CA 1.73239 19.2948 57.0297
CA 6.02468 2.82714 26.8396
CA -0.903439 21.3344 24.5417
CA 20.1542 12.0334 60.7253
CA -4.35812 -13.7875 51.671
CA 24.7462 24.2617 55.3697
CA 20.1676 -11.8283 36.1484
CA -28.5821 12.1234 42.1139
CA 2.02031 -13.6058 78.7766
CA 1.42759 -28.7234 67.0144
CA -21.4103 -7.49142 34.5273
CA -5.96651 -8.11467 30.0772
CA 4.88506 0.981869 87.0037
CA -0.0440412 27.3057 75.4148
CA 11.7143 -3.10286 51.144
CA -12.3088 29.722 38.0065
CA -14.3506 13.5909 40.4698
CA 26.9181 24.1971 50.12
CA 4.10403 -10.9367 50.5793
CA 27.6117 23.0453 51.656
CA 16.2541 -19.9842 52.3248
CA -1.92894 15.7931 50.5219
CA -18.3453 -1.98231 47.9378
CA 20.6075 -20.6571 69.6124
CA -0.489097 -34.0376 55.5793
CA 24.4054 -7.92829 65.2651
CA 16.6943 -4.20691 67.7428
CA 25.2203 23.9823 51.5894
CA 15.1692 6.13761 65.6148
CA -23.9511 -33.9939 62.6964
CA -12.4543 2.44088 52.7382
CA 13.2191 -11.7718 77.5169
CA -5.14 -12.1458 31.988
CA 4.654 -3.16327 55.1907
CA -10.2784 -10.444 63.3297
CA -9.39811 -7.13984 66.0787
CA 24.4809 25.481 52.3794
CA -10.6569 -18.1294 68.1978
CA -2.59639 20.6932 72.9083
CA 7.24718 -2.29397 86.8508
CA 19.8916 -9.49109 76.9311
CA 14.7018 -13.0763 75.225
CA -8.29395 21.6269 36.4005
CA -6.93577 -19.035 74.9884
CA -10.7238 -12.8947 83.6063
CA 10.5196 19.7705 60.2368
CA 10.4076 -0.813882 48.7099
CA -24.447 7.12523 48.2648
CA -4.32964 -31.7884 79.1868
CA -9.30688 -17.6775 65.3705
CA 1.61864 2.87303 86.1302
CA -7.50103 -14.4359 68.8907
CA 2.69914 -12.9099 73.5021
CA 2.47804 12.39 83.6014
CA -3.10189 26.3024 72.1085
CA -22.09 1.84275 42.8605
CA -4.83933 -29.2506 17.0038
CA -21.1385 -27.6498 58.9184
CA 7.77007 -4.19664 57.1903
CA -1.49082 -15.6867 34.7393
CA -23.7877 9.51571 37.5735
CA -12.9133 -16.7026 61.2099
CA -25.6988 0.403542 32.3307
CA -6.38669 8.94259 65.2678
CA -12.954 9.16778 37.0969
CA -20.5777 15.2082 40.567
CA 13.4316 -23.079 52.5825
CA 19.0247 18.5059 31.4663
CA 11.5613 -5.26074 76.2858
CA 3.86572 16.0958 47.3683
CA -22.1992 2.80821 45.087
CA -7.87361 34.5033 61.074
CA 5.81827 -18.6864 79.8932
CA 4.98227 8.97292 31.7298
CA -24.907 9.99757 44.707
CA 5.01765 -8.00498 60.9288
CA 3.51418 2.15042 18.2822
CA -20.4381 -0.392424 28.4743
CA -12.8653 -12.2729 65.5395
CA -2.66767 34.4901 64.1131
CA 3.45483 -19.945 76.8763
CA 3.5951 0.302981 23.5389
CA -26.2945 -6.15871 37.1143
CA -8.69951 30.1344 30.2819
CA 13.6778 -11.3888 82.7352
CA -31.0522 -1.95485 65.5082
CA 18.6215 30.4298 31.2818
CA 21.1878 7.67825 57.3175
CA 27.9413 -10.5582 67.0545
CA 22.3016 -10.5907 67.7549
CA 3.53733 -8.69924 65.3379
CA 2.6296 -31.1617 54.5854
CA -32.3121 -1.80417 62.7376
CA 1.49347 -31.5874 50.6091
CA -16.6616 -12.1323 48.0156
CA 4.97439 20.5146 50.732
CA -15.1357 17.0529 33.7383
CA 5.27114 4.52238 29.0093
CA 18.6654 -20.1814 68.3205
CA 21.9255 8.96789 61.0468
CA -12.8469 -3.08073 49.6522
CA -14.4466 4.86898 51.1727
CA -23.8835 3.78969 50.0604
CA 16.4447 -21.4866 54.2962
CA 9.46276 -7.85376 87.9949
CA 22.0205 23.8949 52.6631
CA 18.3911 30.9498 39.5484
CA -0.36569 8.28664 48.9194
CA 15.1334 -34.3036 35.6134
CA 11.2841 -8.26511 59.1845
CA 0.153009 -10.1914 50.2241
CA -8.41703 22.4775 38.3312
CA 16.3984 -6.54261 68.1639
CA 16.3952 -2.31534 52.526
CA 2.78073 -16.472 36.5499
CA 5.09775 -14.0787 82.8453
CA 1.51859 -16.9464 34.5816
CA 6.46835 -6.52019 65.1679
CA 3.28905 2.18291 90.4614
CA -17.9435 -1.41348 52.4301
CA -21.2388 -0.0404529 25.1473
CA 13.0033 -0.754667 52.4812
CA 1.95415 1.23874 34.9804
CA 5.54528 22.2924 36.9374
CA 15.0276 -30.504 55.3366
CA 0.55608 30.4891 65.9415
CA 19.2701 -11.764 64.9322
CA -6.80665 4.81447 42.9571
CA -36.2735 4.50135 43.1597
CA 27.7933 21.3663 54.5847
CA 17.371 -8.82132 81.5918
CA 19.0303 2.59077 73.0131
CA -5.10928 -32.0712 45.5033
CA -24.1322 10.7012 34.1834
CA 12.1065 -16.8115 83.3629
CA 5.13972 -19.2931 76.6214
CA -22.8147 -2.39588 34.463
CA 11.9773 1.25591 26.2799
CA 24.4406 -23.6217 71.4372
CA 4.48364 20.6979 46.4651
CA -6.18629 26.243 68.2019
CA -2.51626 -30.5128 47.1799
CA -10.2604 -15.9359 64.8712
CA 18.9979 30.4834 37.442
CA -7.00135 -14.6191 12.4902
CA -2.09455 34.6389 61.7079
CA 23.4527 -10.4997 75.9741
CA 5.07937 -21.6152 73.1623
CA -4.3017 -22.3401 22.2932
CA 30.1801 -10.7329 39.5839
CA -16.2508 -8.31375 51.9725
CA 9.65361 -9.46748 75.5448
CA 5.5219 0.901337 20.4661
CA -6.25573 19.1 33.4043
CA -29.7732 23.968 51.6441
CA -16.5397 -8.5949 59.7618
CA 24.2225 -12.0541 69.9527
CA -5.11706 8.57314 71.6611
CA -18.5458 -7.33236 65.2173
CA -21.1459 -4.24859 53.5126
CA 15.7117 11.0933 64.3109
CA -8.07047 -11.9282 82.7843
CA 14.0264 -13.7497 68.2714
CA 27.4891 -11.4672 39.6378
CA 18.0523 -33.2329 57.7132
CA -17.5708 -3.82941 65.17
CA -11.1549 -6.85012 79.2558
CA 12.7448 27.0712 41.2753
CA -11.4584 -11.8663 80.9458
CA 8.53439 -20.2931 39.0948
CA 25.4571 -10.5912 70.3067
CA 13.7526 -34.9069 34.5289
CA -22.0402 11.8252 39.5665
CA -13.8309 -9.0052 64.5726
CA -7.75628 -21.9338 18.2195
CA 30.2546 9.09935 52.0124
CA 36.4355 15.158 47.8384
CA -2.86357 25.2508 64.9224
CA 9.87227 -4.74871 51.1609
CA 2.39591 -16.0642 33.115
CA 17.1713 9.79342 56.8097
CA 18.1876 29.0417 33.9841
CA 2.61597 -7.05579 75.6525
CA 14.5196 -30.9699 57.3857
