489

CA -32.1605 -12.0362 36.8155
CA 25.7113 -2.09024 55.0058
CA 9.15384 -8.98479 49.6085
CA 12.8233 -16.3712 78.3724
CA -1.7503 -22.0713 31.0492
CA -5.39742 9.01836 72.7858
CA -10.0386 -0.906223 70.986
CA -40.1142 -18.4634 51.2715
CA -16.4892 -10.0684 40.9148
CA -19.5443 -9.62851 47.4911
CA -20.8596 -24.2434 65.5126
CA -32.9747 -17.7319 34.9174
CA 8.32635 -35.0236 46.4126
CA -13.3501 -12.5414 68.2741
CA -11.8958 -17.9201 40.375
CA -14.0699 -11.5087 45.4104
CA 5.65488 -13.1934 80.067
CA -1.56984 -15.8357 69.1984
CA -15.9733 -17.3255 40.1258
CA -11.8468 -22.1347 45.9962
CA -0.935457 -27.7567 63.8562
CA -23.1046 -29.3156 66.7856
CA -6.37291 6.60068 74.3542
CA -30.5716 -14.0259 35.9073
CA 17.5808 -5.55666 55.6096
CA 4.67263 1.94595 63.2462
CA -7.50719 -28.1048 61.8011
CA -17.6923 -27.273 60.7455
CA -24.8921 -9.35838 66.8456
CA 3.27005 -25.7816 15.9512
CA 20.8802 5.84051 51.6315
CA -25.9052 -17.6054 45.0318
CA -4.86072 -6.66137 67.9512
CA -24.3403 -18.9666 47.4107
CA -16.1139 -9.53924 43.5518
CA -23.512 -32.5856 62.3192
CA -18.5832 -17.9417 53.6414
CA -0.44256 -22.8627 17.1743
CA 5.88417 0.0415477 51.423
CA 0.510178 -16.2679 30.08
CA -0.858433 1.34976 38.78
CA -2.12207 -23.5176 63.4295
CA -21.0917 -17.7288 45.9096
CA -0.470957 -23.1144 60.3595
CA 2.22205 -36.7812 44.1565
CA 15.8555 -21.4225 48.5161
CA -11.5554 6.56469 56.7085
CA 9.35425 -34.9933 44.103
CA 14.7089 -1.90774 75.8718
CA -0.997336 -22.9178 28.7216
CA 13.9138 -18.339 86.3318
CA -15.439 -13.4425 62.9807
CA 6.76397 -34.5158 58.913
CA -9.52857 -25.6828 67.5118
CA -1.81638 -27.1804 61.1483
CA 5.93204 2.00896 66.9639
CA 6.93709 5.42402 66.5367
CA -2.46325 -1.29253 73.6719
CA -23.0836 -20.0063 49.0304
CA -43.8931 -19.3699 57.7921
CA -16.7731 -16.7943 37.9291
CA 0.766852 -22.9511 31.8258
CA -40.0183 -25.1217 48.7536
CA -22.3092 -20.1529 31.598
CA -32.7026 -0.318405 59.8597
CA -31.385 -16.6965 65.3294
CA -14.8925 -23.4237 42.8896
CA 24.4259 -4.60309 78.2736
CA -30.7014 -5.76642 61.8231
CA -17.7118 -16.7327 42.1972
CA -10.1328 13.8679 60.1251
CA -15.2046 -3.71609 55.9076
CA 8.6089 -38.2174 58.0021
CA -18.1467 -11.4274 67.9284
CA -10.0753 -15.8899 67.2263
CA -17.2086 -9.72248 45.2013
CA -10.0233 8.30809 75.7531
CA -9.7396 1.33359 77.3126
CA -0.809086 -3.64918 56.5979
CA -21.1667 -1.75279 48.5623
CA -9.04175 -21.8202 62.7268
CA -16.2195 -0.14061 49.0036
CA 25.0773 4.44332 49.9937
CA -13.3029 -2.0974 37.9596
CA -15.2119 -21.1783 62.3724
CA 14.6612 -40.9342 45.3109
CA -1.86967 -25.6967 66.7569
CA 3.41863 -21.4525 34.9484
CA -22.6282 -5.99627 42.8251
CA -23.0911 -4.0027 57.3781
CA -1.71835 -27.4607 13.4521
CA 3.82326 -33.5349 58.4302
CA 9.38329 -3.14846 53.6194
CA 12.4535 -34.0093 47.4043
CA -33.5596 -16.2024 66.5049
CA 3.12653 -8.55924 41.2589
CA 0.645712 -23.8706 58.0051
CA -30.2028 -23.9232 62.5641
CA 6.10892 -24.8291 67.3091
CA -14.7621 3.71184 52.6227
CA 1.65136 -5.02908 49.2461
CA -33.8156 -10.8821 35.4775
CA 18.9678 -4.15608 77.5822
CA 9.80664 2.84492 48.2038
CA -36.3642 -0.307448 62.6386
CA -14.9826 1.7882 47.5181
CA -14.636 1.48396 52.7871
CA -18.4793 -15.7281 58.6061
CA 19.044 2.03111 52.6814
CA 15.1806 -38.8578 48.2456
CA -43.3436 -16.1265 57.9288
CA 18.1599 -21.9233 46.8226
CA -15.0214 -0.900925 50.4468
CA -0.0905994 -20.7115 65.6067
CA -11.8832 1.99265 74.0638
CA 3.86202 -5.27664 52.5928
CA 7.01748 1.38144 38.7385
CA -1.86079 -4.69062 70.9757
CA 0.825847 -1.7737 40.5842
CA 14.1595 -3.26792 73.6948
CA -36.2902 -20.9493 50.2804
CA 2.1157 -34.5891 39.3216
CA -2.76189 -31.4093 56.7619
CA -33.5768 -18.5703 68.1166
CA 6.62418 -10.1237 36.3354
CA 7.5183 -43.5321 50.0573
CA 25.0638 -19.7921 44.7742
CA 7.42348 -8.69521 79.7916
CA -10.7011 -17.4337 68.9641
CA -16.2265 -20.5585 67.9352
CA -23.8486 -13.2494 45.1474
CA 5.64346 -9.72275 31.322
CA -42.9599 -18.615 50.0147
CA -13.8549 6.7413 49.2676
CA -3.48746 -20.7545 33.211
CA 13.7869 -9.11643 49.7614
CA -34.0605 -15.6571 35.2717
CA 2.29448 -24.5781 19.698
CA -41.3066 -19.637 48.0171
CA -20.7593 -26.6229 60.1861
CA -0.63218 -8.22576 37.0762
CA 11.0694 2.0755 43.6442
CA -1.87973 -19.5469 28.86
CA -15.7029 -7.87701 56.3699
CA -19.7653 -9.36391 58.8262
CA -46.4996 -11.9488 56.851
CA -0.91828 -16.4024 66.6083
CA 4.19708 -43.2518 49.3648
CA -19.7821 -30.2332 62.7021
CA -0.157654 -20.9695 68.4388
CA 1.44714 -10.4026 70.9236
CA -34.0315 -19.0164 49.8338
CA 9.55371 0.0312516 38.3679
CA -15.5577 -4.05739 43.5884
CA -4.85869 -29.7895 63.1209
CA -24.124 -19.3693 34.5171
CA -11.5276 -10.6664 23.3841
CA -15.0107 -25.5372 59.2722
CA -14.0338 -16.6465 57.0164
CA 7.85832 -26.6012 37.4075
CA -26.3191 -1.90348 50.006
CA -14.1979 -21.0552 39.8261
CA -17.0705 -17.9203 64.4592
CA -25.5549 -12.4632 45.5151
CA 0.238585 -1.72396 55.8913
CA -4.00107 -24.6876 55.1058
CA -11.3672 -1.12686 69.0532
CA 11.8078 -8.17016 43.4943
CA -2.36166 -0.435426 80.0861
CA 13.3722 -41.6504 50.983
CA 2.87289 -31.0085 44.9304
CA -8.10291 -0.166508 70.8038
CA 6.97318 -0.67372 50.1525
CA 9.68458 -9.33666 46.2613
CA -42.0529 -23.641 56.0354
CA -7.36955 13.2141 60.8179
CA -1.57503 -33.1469 56.3859
CA -3.57354 -0.487838 76.8566
CA 11.3376 -16.9898 84.3999
CA -5.76898 -10.3229 69.4031
CA -6.33313 -1.35025 62.5462
CA 3.57804 -20.8475 70.0293
CA -22.1712 -17.6779 48.7592
CA 4.73163 -35.1236 43.7954
CA 5.54704 -35.5804 64.614
CA -4.11199 3.88892 74.469
CA 7.20433 -36.2093 59.53
CA -33.7763 -12.9851 63.8986
CA 4.23308 -3.49232 64.1739
CA 0.86449 0.00467167 62.1961
CA -25.849 -5.46996 55.5166
CA 6.13728 -28.6288 61.3485
CA -20.5729 -28.8267 76.7074
CA 17.5049 -18.2903 44.9479
CA -17.767 -31.1558 77.453
CA 7.08364 -5.763 57.1481
CA -3.42183 -7.00843 26.797
CA -0.371729 -15.6824 28.5224
CA -7.49943 0.513787 73.6911
CA -11.8867 -12.0004 54.7235
CA -31.7294 -14.299 68.2263
CA 12.6745 -26.7003 46.367
CA -6.64077 -28.5473 14.0266
CA -11.2633 -3.11446 69.7946
CA -24.4462 -9.32134 64.448
CA -21.4213 -2.81236 41.7896
CA 1.32753 -8.62257 42.9977
CA -1.61978 -26.8889 38.5724
CA -2.09991 -12.9518 68.0313
CA 6.85951 -28.9401 34.0797
CA -1.06581 -23.9022 31.2439
CA -33.9856 -16.5166 41.8708
CA 7.43308 -11.4864 74.731
CA 5.92951 -0.43874 43.7037
CA -26.3791 -19.7342 60.0279
CA -18.1431 -4.72502 48.6934
CA 4.53173 -40.6788 50.0566
CA 3.83982 -5.97489 45.2037
CA 4.64521 -40.4221 40.4623
CA -5.77763 -24.5437 29.4517
CA -20.9727 -16.8626 52.6026
CA -1.29805 -33.3299 32.983
CA -9.20864 -21.6142 27.5071
CA -29.5963 -17.3237 39.2108
CA -6.89573 -27.0977 63.4949
CA 5.41345 -8.82152 51.5309
CA -30.4587 -18.2348 59.9577
CA 15.2502 -24.1778 47.1552
CA 24.9711 -6.69663 73.6698
CA -24.1625 -30.149 68.2188
CA -0.479982 -6.02074 65.3254
CA 15.605 -14.8249 50.4101
CA 4.70719 -8.26891 40.3728
CA 11.1513 4.9335 67.6641
CA -1.21047 -7.05737 46.3391
CA -17.6152 1.7026 53.8367
CA 4.61611 -0.516053 64.6703
CA -4.02044 11.7539 65.3322
CA -18.2805 -14.0302 45.8295
CA -9.07558 -29.5913 59.0572
CA 8.44322 -1.38038 52.518
CA 28.6626 -7.6752 81.8979
CA -12.7732 -17.004 60.8095
CA -11.5594 -20.0109 25.6922
CA 13.27 -10.6987 48.9002
CA 8.55655 -4.7956 36.5115
CA -0.960261 -17.1836 71.1363
CA 4.44565 -43.7969 53.9973
CA -7.78452 9.67698 59.4593
CA -4.1249 -31.4308 65.9115
CA -2.60592 -27.9022 29.6225
CA -10.9905 12.0184 59.0516
CA -21.9943 1.86773 58.07
CA -22.0732 -20.7372 62.4335
CA -17.8159 -30.3686 70.6966
CA -7.14303 -1.70163 60.6335
CA 4.75932 -25.2584 38.5372
CA -22.9744 0.41638 56.9645
CA -21.017 -13.5705 55.3349
CA 7.33883 -7.3068 65.3631
CA -1.09455 -23.8212 35.2759
CA 2.08797 -0.274515 48.3693
CA -42.2693 -13.363 53.6959
CA -11.4487 -13.3804 31.0773
CA 3.78086 -24.6167 56.8673
CA -19.6053 -14.1104 39.3515
CA -17.666 -23.5131 45.2786
CA -21.7917 -19.7529 52.245
CA -31.1801 -7.37956 59.5195
CA -34.8692 -18.5219 38.0673
CA -5.08169 0.860518 76.5208
CA -11.1037 -6.89516 41.2588
CA -1.76115 -5.43924 66.7
CA 1.73063 -28.2669 40.5354
CA -12.6369 14.3627 52.3024
CA 7.7593 -12.1864 81.7633
CA -11.4572 12.6361 54.3876
CA -20.5835 -28.3095 64.6555
CA -26.2752 -20.1286 63.5184
CA -18.5604 -2.76151 52.9202
CA 7.28651 -24.8422 14.2436
CA 4.9944 -5.59185 49.3961
CA -1.0057 -31.8591 60.4945
CA -2.16792 -21.3385 69.7258
CA 8.21092 -7.84302 75.1022
CA -27.3363 -2.10511 58.5448
CA 6.20455 0.751208 64.8991
CA -1.78106 -18.0132 20.6306
CA -19.703 -30.6707 66.2467
CA -36.2409 -25.7395 55.5156
CA -7.67388 -0.104595 67.162
CA -20.286 -17.0331 57.3396
CA -13.191 -2.18496 35.161
CA 5.35321 -23.0546 31.142
CA -8.30924 -23.092 30.5016
CA 3.19216 -2.38866 49.0091
CA -0.744152 -35.2216 32.1372
CA -3.96937 -5.7565 55.6022
CA -19.6311 -9.25499 41.3918
CA -0.271156 -27.7316 32.6004
CA 6.74537 -28.749 38.5772
CA -22.7473 4.04518 56.431
CA -18.9963 -32.0351 63.1179
CA 6.93616 -13.1865 47.5428
CA -10.8456 -26.1824 59.6008
CA -4.75382 -2.36707 75.7375
CA -23.8053 -1.32262 54.9081
CA -4.46123 2.37928 64.7855
CA -3.06027 -19.4192 18.1663
CA -1.56675 -9.3321 65.342
CA 11.263 -3.84181 57.6706
CA -8.33128 2.67303 69.3355
CA -20.4874 -27.9828 62.5305
CA -19.1417 -9.74977 66.3735
CA -33.5782 -14.9673 59.3728
CA 17.2582 -19.2651 48.6738
CA 0.103556 -18.3675 30.5649
CA -33.3518 -16.5953 49.1636
CA -21.5416 -3.45194 54.8206
CA -27.9772 -15.5064 62.4413
CA -0.4442 -22.1041 25.9646
CA -1.50816 -14.1218 71.8782
CA -2.23501 -8.67043 47.4285
CA -30.0058 -15.9809 58.8516
CA 12.7649 -12.4205 48.1086
CA 0.229411 -2.701 45.8191
CA -8.59951 3.77877 72.2785
CA -8.8602 10.324 61.8322
CA -16.6403 -35.7357 77.9437
CA -25.8875 -0.0181885 56.5019
CA 7.22712 -1.2553 47.3534
CA -37.7285 -18.3942 40.6871
CA -12.2779 -13.0667 60.4936
CA 7.32347 -39.7159 60.3585
CA -10.4542 -24.3268 61.6255
CA 10.0441 -6.62195 74.332
CA 9.32047 -32.332 44.1469
CA 7.23912 2.4888 44.3382
CA -22.0404 -13.759 71.2925
CA 2.37588 -22.623 65.9783
CA -38.6228 -23.0452 50.1687
CA -28.7087 -2.73066 63.6024
CA -4.12496 -19.8492 22.7631
CA -3.19822 -5.98754 33.0925
CA -3.88208 -21.4214 57.4729
CA 25.0487 -8.52489 79.7246
CA -8.70021 -30.5332 62.6216
CA 8.08044 -47.4521 52.2691
CA -31.0572 -16.7294 45.1664
CA 5.92609 -32.2013 63.912
CA -35.5953 -17.9971 59.3461
CA 4.40669 -5.43582 47.137
CA -18.6939 -32.418 74.4995
CA -23.6444 -16.8105 51.4667
CA -15.3791 -2.6797 40.1338
CA -12.7565 -9.85234 69.6799
CA -28.3126 -17.6776 49.7224
CA -45.0591 -19.7121 49.449
CA 6.25876 -26.9096 35.7891
CA -6.03314 -16.2231 29.1721
CA 15.2189 -42.5066 46.3518
CA 18.6675 -6.24092 47.3163
CA 15.2989 -18.2969 81.254
CA -19.6379 -17.7297 35.8182
CA -0.334868 -27.8498 12.1628
CA 0.73487 -10.4544 38.2562
CA -15.5403 -6.87911 45.0637
CA 8.70113 -40.4558 53.7653
CA 11.2516 -47.514 50.7041
CA 6.27046 -17.1291 49.0563
CA 5.1808 -28.76 46.2128
CA 5.59884 -2.3024 53.1415
CA -32.8769 -26.3486 61.4791
CA -5.44579 -41.8359 59.9747
CA -6.68619 -6.28109 58.775
CA -6.00073 -7.76596 34.8026
CA -20.2209 -19.7477 45.5521
CA -4.60201 -14.9836 71.6162
CA -1.22615 -30.1175 31.6603
CA 22.5229 -3.20698 50.6712
CA -12.3231 -4.90995 44.9802
CA -2.18748 -5.10242 55.7833
CA -30.5785 -14.1644 31.7287
CA 10.0383 -45.8965 49.8159
CA 0.936553 -25.2209 55.3099
CA -12.9123 -1.2207 42.9435
CA -18.9171 -1.75178 50.2133
CA -34.6573 -16.5368 57.5079
CA -21.1546 -14.0831 41.4672
CA -18.4364 -22.0582 68.541
CA -17.7048 -0.42167 46.639
CA 4.93777 -12.0091 46.31
CA -9.79191 -20.1783 67.0369
CA -21.4738 -13.9053 43.5259
CA -2.39948 -25.8698 32.5152
CA 7.82133 -13.4056 61.9421
CA -1.80656 -10.6416 44.0019
CA 7.09256 -3.76945 50.0295
CA -12.6186 -6.86779 53.935
CA -41.4401 -24.0087 47.5992
CA -19.3 -19.9523 65.4735
CA -4.42033 -24.7027 31.6342
CA -1.60256 -29.5309 15.4918
CA 1.57616 -3.76112 54.7157
CA -39.2156 -20.4755 48.0666
CA -3.48016 -2.23787 65.076
CA 14.7826 -12.5264 54.0273
CA -13.0853 4.52744 54.5842
CA 9.8788 -4.79823 77.0629
CA -17.2646 -18.6782 50.2785
CA -4.89923 -31.1902 61.0162
CA -43.5767 -31.1763 52.9028
CA 11.7283 -28.7456 50.9118
CA -29.5336 -20.5722 59.1308
CA 6.70727 -1.05291 38.5569
CA 18.854 0.259304 44.7241
CA -43.4702 -26.2353 52.697
CA -0.248895 0.806814 64.5705
CA -15.7955 -2.63028 46.2863
CA -1.03388 -21.8461 18.5437
CA -5.72012 8.20505 57.4276
CA -16.4274 -33.2497 76.4236
CA 4.11078 4.66643 40.9857
CA 5.81298 -20.0213 51.8873
CA 4.36597 -8.86699 35.4787
CA -10.1379 -18.9151 62.1465
CA 18.9186 -5.16831 52.5976
CA 1.90501 -6.59451 35.1404
CA -14.9746 -17.9268 61.5699
CA 23.128 7.25192 47.596
CA -4.88077 -26.866 57.9259
CA -0.451879 -8.44513 76.3156
CA -3.97445 -25.211 18.6504
CA -15.5594 14.7909 54.6817
CA -15.8506 -14.6465 57.8642
CA 5.63865 -5.54902 36.4263
CA -19.6582 -22.3545 40.7929
CA -6.33855 -0.0328989 64.5438
CA -10.8451 -32.235 58.5963
CA -21.6678 -28.9426 58.3657
CA 8.534 -0.331224 48.5821
CA 6.35178 -8.29816 73.1064
CA -5.52553 0.403085 66.204
CA 1.33003 -7.81245 45.1894
CA 1.14498 1.01787 49.4855
CA -36.9341 -17.3312 54.8158
CA -30.2773 -1.91788 58.7441
CA 14.743 -17.7688 47.7152
CA -12.1078 -4.21861 72.2139
CA -11.4163 -16.3839 27.5007
CA -12.8078 -6.85651 44.0638
CA -13.2651 -2.02868 40.045
CA 19.3846 8.9032 49.2511
CA 0.751641 -9.53893 72.6894
CA 7.98255 -32.9532 47.3794
CA 2.51496 -3.18424 45.2488
CA -2.17863 -3.31782 40.5218
CA 15.7198 -5.40798 51.338
CA 2.19355 -7.28284 56.2672
CA -3.28601 -33.9819 33.4352
CA -10.29 -12.2126 69.2376
CA -2.83301 -16.646 67.5444
CA 20.2638 -44.0005 45.9653
CA -6.3224 -34.2891 59.2558
CA 12.9959 -10.9353 51.3098
CA -29.2905 -10.3522 58.7558
CA 2.09417 -27.6996 27.2977
CA 21.0885 1.59656 49.7521
CA 2.41707 -13.0479 72.1962
CA 2.81477 -3.16172 41.4304
CA 16.4098 -16.2811 54.9823
CA 16.6175 -30.1758 51.8465
CA -11.6398 -17.4761 42.277
CA -4.75042 -2.92877 29.5266
CA 9.5713 -0.965368 50.475
CA -12.5494 -21.6472 61.2419
CA 10.7193 -13.8477 77.4535
CA 3.73359 -24.2677 64.8969
CA 1.0973 -1.02708 60.5412
CA 4.62298 -6.27527 34.0253
CA -28.5033 -1.31267 62.1205
CA -47.3813 -10.3216 54.4295
CA -10.4509 -20.9857 59.8244
CA 6.97 -11.2696 65.2919
CA -3.37174 -18.1667 21.6002
CA -10.5056 -9.94663 28.8287
CA 12.8199 -15.9078 82.421
CA 1.75753 -27.3942 66.5501
CA -8.81632 -25.3407 62.0658
