489

CA 0.600282 -24.9191 57.2077
CA 25.7113 -2.09024 55.0058
CA -8.69697 4.79036 69.6355
CA 23.2504 -5.80054 84.7526
CA -19.1586 -0.0437224 51.7677
CA -35.7427 -15.1587 67.8411
CA -18.9153 -1.29078 53.4979
CA -20.4867 -7.45064 54.7285
CA 4.67403 -37.8094 42.0556
CA -15.9337 -17.4863 58.1913
CA 11.0855 2.26729 46.2017
CA -19.8011 -5.37249 43.4545
CA -6.70253 -5.00185 64.2911
CA 2.82349 -18.9214 23.701
CA -16.1175 -12.6838 68.1268
CA -14.0699 -11.5087 45.4104
CA 6.20722 -12.8296 38.3745
CA 21.3484 10.2996 45.2597
CA -0.906706 -5.15627 42.6724
CA -19.1759 -24.6752 60.2146
CA -0.186346 -9.37517 46.0902
CA -23.1046 -29.3156 66.7856
CA -6.37291 6.60068 74.3542
CA -15.5568 -12.0478 65.2208
CA -7.34556 -6.78052 63.9228
CA 4.67263 1.94595 63.2462
CA -3.82729 -7.99603 55.2553
CA 3.17813 3.50506 38.0915
CA -21.0235 -18.1052 42.3992
CA -13.1455 -32.0696 63.9076
CA 20.8802 5.84051 51.6315
CA 8.08008 -3.93306 47.651
CA 0.0430354 -11.6718 50.4125
CA -18.8004 -10.4456 47.9442
CA -16.1139 -9.53924 43.5518
CA -18.0566 -11.9706 50.2981
CA -15.022 -4.63955 73.8964
CA 0.340437 2.93534 49.8517
CA -12.3474 -22.1782 43.621
CA 0.510178 -16.2679 30.08
CA -6.50865 -26.7004 56.1491
CA -2.12207 -23.5176 63.4295
CA -26.7763 1.16721 55.302
CA 0.915266 -7.40289 65.3364
CA 2.22205 -36.7812 44.1565
CA 15.8555 -21.4225 48.5161
CA 17.1182 -16.0332 42.6498
CA -1.39666 -18.514 23.9598
CA 14.7089 -1.90774 75.8718
CA 10.4622 -9.01356 71.3597
CA -10.738 1.81805 69.6914
CA 11.5866 -5.07791 77.8372
CA -22.6975 -7.24996 45.258
CA -9.52857 -25.6828 67.5118
CA 23.3928 -3.761 83.0194
CA -27.7766 -8.68628 63.2707
CA -26.4994 -23.0346 57.071
CA -24.806 2.94594 54.2086
CA -20.9147 -1.12875 51.2392
CA -43.8931 -19.3699 57.7921
CA -16.7731 -16.7943 37.9291
CA 0.766852 -22.9511 31.8258
CA -40.0183 -25.1217 48.7536
CA -20.9264 -19.2807 66.6419
CA -40.6329 -13.347 54.7887
CA -31.385 -16.6965 65.3294
CA -0.552174 0.515177 78.0723
CA 24.4259 -4.60309 78.2736
CA -30.7014 -5.76642 61.8231
CA -12.6412 -26.4977 59.6891
CA -1.06779 -13.4357 66.41
CA 8.83668 1.38862 50.3327
CA 8.6089 -38.2174 58.0021
CA -18.1467 -11.4274 67.9284
CA -8.57629 -8.86585 64.0952
CA -17.2086 -9.72248 45.2013
CA -18.8721 2.50042 48.2498
CA -9.7396 1.33359 77.3126
CA -12.9698 -14.029 35.0129
CA -21.1667 -1.75279 48.5623
CA -9.04175 -21.8202 62.7268
CA -6.09624 -14.6926 65.1457
CA 21.2076 -8.38022 76.6127
CA -13.3029 -2.0974 37.9596
CA -1.51657 -20.7766 29.0747
CA 14.6612 -40.9342 45.3109
CA -4.75303 -0.0507076 53.8471
CA 3.41863 -21.4525 34.9484
CA 4.84001 -6.56781 73.2481
CA -32.0202 -26.0099 63.6994
CA -1.71835 -27.4607 13.4521
CA -4.48668 -33.2932 61.208
CA 9.38329 -3.14846 53.6194
CA 12.4535 -34.0093 47.4043
CA 3.44892 1.31843 38.5621
CA 3.12653 -8.55924 41.2589
CA -25.3825 -28.0947 61.1012
CA -30.2028 -23.9232 62.5641
CA -11.1316 -16.0504 58.9428
CA -3.01798 -2.55182 66.8996
CA 1.65136 -5.02908 49.2461
CA 10.1825 -5.37578 51.8999
CA 18.9678 -4.15608 77.5822
CA 9.80664 2.84492 48.2038
CA -0.388801 -30.3226 70.4322
CA -14.9826 1.7882 47.5181
CA -13.2464 -7.91521 48.9658
CA 5.6898 -10.4031 53.7269
CA -3.31039 1.12327 81.805
CA 15.1806 -38.8578 48.2456
CA -8.29134 -3.16239 46.2262
CA -43.5206 -24.1907 54.2602
CA 7.2068 -31.794 40.1202
CA -0.0905994 -20.7115 65.6067
CA -5.22441 -3.70056 73.2913
CA -1.80545 -0.290736 57.5265
CA -2.34257 12.2315 63.7667
CA -1.86079 -4.69062 70.9757
CA -2.36857 -2.35545 55.1702
CA 14.1595 -3.26792 73.6948
CA 8.54748 -29.3559 43.4923
CA 2.1157 -34.5891 39.3216
CA -39.7084 -14.7353 50.1511
CA -17.4802 -17.0514 62.7887
CA 6.62418 -10.1237 36.3354
CA 7.5183 -43.5321 50.0573
CA 25.0638 -19.7921 44.7742
CA 5.23285 4.79408 64.8735
CA -21.5476 -21.9595 64.8102
CA 7.17896 -45.7499 49.6597
CA 20.0029 8.80787 46.911
CA 6.7256 -6.37591 51.4256
CA -6.65001 -34.3199 60.4464
CA -13.8549 6.7413 49.2676
CA -5.14353 -0.812525 72.596
CA -20.743 -0.74126 53.8502
CA -23.2845 -28.5373 51.1066
CA 2.29448 -24.5781 19.698
CA -41.3066 -19.637 48.0171
CA -20.7593 -26.6229 60.1861
CA -11.0493 -0.44278 37.894
CA 11.3026 -12.2582 48.0349
CA -9.33598 -17.7138 59.2196
CA -15.7029 -7.87701 56.3699
CA -19.7653 -9.36391 58.8262
CA -0.452755 -31.5535 57.9716
CA -18.5192 1.86072 45.5824
CA -33.2845 -13.6611 46.1879
CA -32.8835 -15.7294 46.9435
CA -0.157654 -20.9695 68.4388
CA -14.8468 -16.3034 63.7996
CA -17.9157 0.229468 43.0924
CA -2.0948 -2.63437 61.6916
CA -15.5577 -4.05739 43.5884
CA 2.73796 -22.5141 59.1349
CA -24.124 -19.3693 34.5171
CA -9.75725 -21.9705 56.5112
CA -15.0107 -25.5372 59.2722
CA -8.75363 1.51903 67.5944
CA 7.85832 -26.6012 37.4075
CA -26.3191 -1.90348 50.006
CA 4.92343 -6.06937 51.9384
CA -17.0705 -17.9203 64.4592
CA -21.7987 0.903634 49.4196
CA -2.43442 -5.8775 62.7034
CA -29.9663 -14.9235 49.9174
CA 6.47496 -6.13487 38.5066
CA -18.7742 -4.18659 59.9513
CA 12.6717 -5.0741 56.8254
CA 13.3722 -41.6504 50.983
CA 2.87289 -31.0085 44.9304
CA -18.2771 -18.6407 42.2744
CA -1.70577 -2.23073 51.8505
CA 9.68458 -9.33666 46.2613
CA -42.0529 -23.641 56.0354
CA -7.36955 13.2141 60.8179
CA -1.57503 -33.1469 56.3859
CA -12.2022 -26.9088 62.5176
CA 0.607107 -6.25729 36.5886
CA 6.00903 -10.0582 48.9898
CA -20.9633 -31.7267 75.3898
CA 3.57804 -20.8475 70.0293
CA 0.424022 -20.9318 22.8161
CA -25.1444 -15.5437 49.8147
CA 5.54704 -35.5804 64.614
CA -4.11199 3.88892 74.469
CA -23.513 -22.8726 47.3188
CA -33.7763 -12.9851 63.8986
CA 4.23308 -3.49232 64.1739
CA 1.93277 -22.7808 63.3098
CA 0.236901 -26.0669 59.4524
CA 6.13728 -28.6288 61.3485
CA -17.5825 -7.36015 45.4627
CA 17.5049 -18.2903 44.9479
CA 1.42867 -33.1083 44.2651
CA 10.6061 -3.43568 75.7134
CA -4.44124 -31.7041 68.6365
CA -42.9196 -27.1506 60.312
CA -17.2628 -5.46822 44.8795
CA -8.25378 -30.5009 62.4438
CA -25.9001 -11.4726 42.9279
CA 1.54391 -0.371658 81.3412
CA -6.64077 -28.5473 14.0266
CA -37.8744 -16.0114 52.7764
CA -24.4462 -9.32134 64.448
CA 9.47912 -30.6627 41.7909
CA 1.32753 -8.62257 42.9977
CA 0.916851 -27.8719 17.6501
CA -2.09991 -12.9518 68.0313
CA 2.03587 -44.9399 43.1002
CA -2.09313 -5.52287 67.5933
CA -33.9856 -16.5166 41.8708
CA 7.43308 -11.4864 74.731
CA -28.8834 -8.67057 60.6123
CA -26.3791 -19.7342 60.0279
CA -6.65931 -2.85109 67.0615
CA -13.5683 -19.1648 43.6693
CA 5.50008 -32.9571 38.6018
CA 4.64521 -40.4221 40.4623
CA 2.21018 -24.361 61.4895
CA -26.8714 -7.77125 59.5761
CA -22.3381 3.72519 51.8462
CA -10.9557 -5.62095 49.208
CA -11.6844 -7.61019 70.1065
CA -6.89573 -27.0977 63.4949
CA -22.3128 -21.4304 59.4167
CA -30.4587 -18.2348 59.9577
CA -3.03042 -2.20477 81.228
CA 24.9711 -6.69663 73.6698
CA 11.3408 4.8835 50.6972
CA -0.479982 -6.02074 65.3254
CA 15.605 -14.8249 50.4101
CA 7.57004 -8.65969 34.1688
CA -4.56391 -11.5997 66.2597
CA -30.5139 -15.0992 42.6495
CA -17.6152 1.7026 53.8367
CA 8.43936 -40.4747 58.5023
CA -4.02044 11.7539 65.3322
CA -36.8354 -20.4514 51.2018
CA -9.07558 -29.5913 59.0572
CA -29.1 -11.539 61.6598
CA 28.6626 -7.6752 81.8979
CA -3.97696 -24.6507 14.5303
CA -11.5594 -20.0109 25.6922
CA 13.27 -10.6987 48.9002
CA 8.55655 -4.7956 36.5115
CA -28.9144 -4.70249 60.6685
CA 4.44565 -43.7969 53.9973
CA -7.78452 9.67698 59.4593
CA -4.1249 -31.4308 65.9115
CA -2.60592 -27.9022 29.6225
CA -10.9905 12.0184 59.0516
CA -18.0981 -32.5056 79.499
CA -22.0732 -20.7372 62.4335
CA -27.7318 4.51764 58.5686
CA -6.89036 -24.6287 54.9642
CA -19.1299 -25.2051 68.4986
CA -22.9744 0.41638 56.9645
CA -23.1773 -30.1124 55.6391
CA 7.33883 -7.3068 65.3631
CA -24.8224 -14.8034 46.1696
CA 2.08797 -0.274515 48.3693
CA 3.86648 3.01993 64.4679
CA -11.4487 -13.3804 31.0773
CA 0.587954 -24.7816 52.5066
CA -7.3824 -33.1926 55.8415
CA -17.666 -23.5131 45.2786
CA -36.5172 -13.4197 57.852
CA -31.1801 -7.37956 59.5195
CA -26.3325 3.38857 57.3428
CA -5.08169 0.860518 76.5208
CA 7.51091 -6.95984 53.8253
CA -12.493 -4.78921 38.3262
CA -0.502622 -6.73648 41.2179
CA -1.00145 -26.5799 62.153
CA 7.7593 -12.1864 81.7633
CA -19.6117 -30.7904 77.5772
CA 12.9385 -3.43852 51.7942
CA -26.2752 -20.1286 63.5184
CA 4.06096 -3.63668 57.8954
CA -12.1232 -30.7917 58.3592
CA -0.0156893 -11.6981 47.4687
CA -18.9108 -32.1624 70.4317
CA 1.57412 -34.8728 62.0997
CA -3.4803 -3.27285 52.0332
CA -17.2307 -23.4819 58.8765
CA -2.16411 0.225736 68.3656
CA -10.0059 -3.5028 64.0324
CA -19.703 -30.6707 66.2467
CA -20.5357 -32.7736 54.7423
CA 0.686586 -35.5986 56.4402
CA -20.286 -17.0331 57.3396
CA -28.1664 4.52634 55.6592
CA -23.4752 -24.3031 29.7469
CA 5.45518 -11.1843 68.5594
CA -22.6697 -27.7381 66.0077
CA -15.0277 -10.887 24.8433
CA -3.96937 -5.7565 55.6022
CA -28.335 -21.921 59.7199
CA -31.5968 -30.6619 63.6888
CA -43.5448 -20.8121 53.4958
CA 0.298087 -3.76282 42.0461
CA 12.7794 -28.3235 48.8535
CA 6.93616 -13.1865 47.5428
CA -34.1692 -24.5165 61.5843
CA -39.2242 -25.264 56.3226
CA -11.9049 -5.64106 46.6024
CA 1.71966 -10.9112 35.867
CA 10.3906 -4.88701 55.4548
CA -1.56675 -9.3321 65.342
CA -18.3564 -26.848 69.5861
CA -8.33128 2.67303 69.3355
CA 19.3673 0.562295 46.5303
CA -19.1417 -9.74977 66.3735
CA -33.5782 -14.9673 59.3728
CA 17.2582 -19.2651 48.6738
CA 4.1925 -6.65717 36.485
CA -33.3518 -16.5953 49.1636
CA -21.5416 -3.45194 54.8206
CA 11.9584 -10.7941 64.4714
CA 7.84298 4.76365 41.1971
CA -18.2899 -4.39949 43.7765
CA -7.81596 6.51658 59.7571
CA -20.4342 -31.0461 71.1271
CA -6.8723 -29.6714 64.3871
CA -9.56288 17.2297 58.999
CA 18.173 -16.3653 39.9668
CA -8.8602 10.324 61.8322
CA -3.52756 -10.7249 63.1694
CA 2.58438 -25.7008 36.7095
CA -0.721554 -26.2889 56.2489
CA -17.8578 -16.2908 60.4971
CA -12.2779 -13.0667 60.4936
CA -6.08574 -15.5808 70.7251
CA 19.5852 -27.3701 46.5195
CA 10.0441 -6.62195 74.332
CA 9.32047 -32.332 44.1469
CA 5.47622 -6.46524 55.8051
CA -22.0404 -13.759 71.2925
CA -11.9327 10.9337 56.5345
CA -38.6228 -23.0452 50.1687
CA -8.36179 -31.9974 63.8826
CA -4.12496 -19.8492 22.7631
CA -3.71624 -30.9755 55.4476
CA -3.88208 -21.4214 57.4729
CA 25.0487 -8.52489 79.7246
CA 13.6331 -10.5741 45.0186
CA 3.99744 -24.8694 70.1579
CA -31.0572 -16.7294 45.1664
CA 14.4133 -50.1692 48.5794
CA -35.5953 -17.9971 59.3461
CA 4.40669 -5.43582 47.137
CA -18.6939 -32.418 74.4995
CA -23.6444 -16.8105 51.4667
CA -15.3791 -2.6797 40.1338
CA 13.7163 -6.33158 63.1986
CA -28.3126 -17.6776 49.7224
CA -45.0591 -19.7121 49.449
CA -5.18184 -24.194 12.5574
CA 3.88312 -39.1279 57.2994
CA 15.2189 -42.5066 46.3518
CA 7.79306 -11.901 40.0389
CA 2.84599 -23.5531 27.8725
CA -19.6379 -17.7297 35.8182
CA -0.334868 -27.8498 12.1628
CA -21.5855 -26.6763 31.4693
CA -7.67528 -25.296 22.8841
CA 8.70113 -40.4558 53.7653
CA 11.2516 -47.514 50.7041
CA 4.96884 -1.38254 60.0314
CA 5.1808 -28.76 46.2128
CA 5.59884 -2.3024 53.1415
CA -32.8769 -26.3486 61.4791
CA 17.869 -21.4951 49.3373
CA -6.68619 -6.28109 58.775
CA -28.6165 -24.2194 65.5261
CA -5.5315 10.1698 62.1054
CA -4.60201 -14.9836 71.6162
CA -8.98439 -30.1949 14.1709
CA 22.5229 -3.20698 50.6712
CA -23.993 -30.5774 70.8568
CA -22.9829 -12.6695 46.0954
CA -17.9509 -34.0954 75.5132
CA 10.0383 -45.8965 49.8159
CA 0.936553 -25.2209 55.3099
CA 0.750528 -8.99431 40.3985
CA -13.5661 -11.9733 30.103
CA -21.0479 -13.7978 46.6065
CA -11.5355 -11.302 45.9772
CA -18.4364 -22.0582 68.541
CA -17.7048 -0.42167 46.639
CA -11.9516 -24.9552 61.4285
CA -9.79191 -20.1783 67.0369
CA -21.4738 -13.9053 43.5259
CA -2.39948 -25.8698 32.5152
CA -5.19606 -16.9166 73.6724
CA 15.7658 -10.5478 48.3261
CA 7.09256 -3.76945 50.0295
CA -12.6186 -6.86779 53.935
CA -14.064 -6.20703 41.5127
CA -14.867 -2.56664 36.3343
CA -29.1796 5.91068 59.746
CA -1.60256 -29.5309 15.4918
CA 2.77347 -28.4056 37.212
CA -7.48851 1.66849 62.8192
CA -0.13249 -4.89371 68.5813
CA 14.7826 -12.5264 54.0273
CA -13.0853 4.52744 54.5842
CA 9.8788 -4.79823 77.0629
CA -17.2646 -18.6782 50.2785
CA -4.89923 -31.1902 61.0162
CA -22.4063 -26.0514 58.8089
CA 11.7283 -28.7456 50.9118
CA 2.42762 -42.8214 42.0282
CA -16.2289 -14.2087 69.7727
CA 18.854 0.259304 44.7241
CA 13.0564 -30.1036 51.2401
CA 1.79242 -23.8666 24.2508
CA 4.66051 -0.65875 52.0208
CA -1.03388 -21.8461 18.5437
CA -7.40195 -15.3808 68.574
CA -16.4274 -33.2497 76.4236
CA 4.11078 4.66643 40.9857
CA -33.8145 -16.7655 38.8103
CA 4.36597 -8.86699 35.4787
CA -14.4933 -22.4781 57.8235
CA 18.9186 -5.16831 52.5976
CA -21.6736 -19.5932 49.398
CA -12.5706 -8.98664 73.1773
CA -20.4611 -19.3088 57.6906
CA -4.88077 -26.866 57.9259
CA -0.451879 -8.44513 76.3156
CA -3.97445 -25.211 18.6504
CA 11.806 -29.6171 43.9998
CA -27.5769 -10.0118 61.7306
CA -24.9042 -18.2858 49.3543
CA 15.6797 -25.9863 47.6544
CA -6.33855 -0.0328989 64.5438
CA 11.4253 -2.68459 50.3239
CA 0.543625 -30.6076 61.5981
CA 8.534 -0.331224 48.5821
CA -36.0125 0.0433432 64.3022
CA 2.53983 -5.76885 37.7615
CA 2.59391 -29.1122 17.5088
CA -19.395 -27.4694 56.9692
CA -36.9341 -17.3312 54.8158
CA 0.546191 -9.05146 77.7722
CA -24.9406 -19.3503 31.8019
CA -12.1078 -4.21861 72.2139
CA -11.4163 -16.3839 27.5007
CA -12.9196 -3.46525 53.5792
CA -13.2651 -2.02868 40.045
CA 19.3846 8.9032 49.2511
CA 0.751641 -9.53893 72.6894
CA 7.98255 -32.9532 47.3794
CA 4.13014 -1.63776 54.1743
CA -10.9963 -1.3632 54.5435
CA 15.7198 -5.40798 51.338
CA -7.03146 15.0885 63.6435
CA -12.0317 -18.1029 46.1368
CA -10.29 -12.2126 69.2376
CA 6.3418 2.98996 38.3439
CA 20.2638 -44.0005 45.9653
CA -10.0961 -26.2106 59.426
CA 10.1665 -30.8482 50.183
CA -29.2905 -10.3522 58.7558
CA 2.09417 -27.6996 27.2977
CA 21.0885 1.59656 49.7521
CA -20.2128 -15.7951 59.1899
CA 2.81477 -3.16172 41.4304
CA -5.28995 -20.0703 13.8544
CA 10.7338 -28.3331 60.2013
CA 7.08132 -7.73111 39.2385
CA -22.8186 -22.3847 57.6893
CA -13.8908 -25.4845 61.5075
CA 4.54955 -27.6278 38.8576
CA 10.7193 -13.8477 77.4535
CA -8.71521 -7.24238 51.9104
CA -36.4384 -18.2051 38.2796
CA -20.9117 -5.57244 50.7149
CA -8.25246 -34.7725 59.629
CA 9.49154 -16.0574 77.9106
CA -11.4316 -6.67723 57.0929
CA 6.97 -11.2696 65.2919
CA -3.37174 -18.1667 21.6002
CA 1.51499 -41.5357 46.6659
CA 0.286183 -0.640005 47.0965
CA 1.75753 -27.3942 66.5501
CA -3.87027 -6.54608 57.2321
