489

CA -7.44469 -19.1708 42.0297
CA -6.34016 -11.6044 68.6345
CA -20.2095 -19.3753 40.15
CA 23.2504 -5.80054 84.7526
CA -19.1586 -0.0437224 51.7677
CA -11.332 -33.8999 55.713
CA -42.1893 -25.244 55.3989
CA -45.4834 -27.3481 53.4895
CA 4.67403 -37.8094 42.0556
CA -0.603079 -1.86762 64.7846
CA -20.1505 -34.9226 76.5028
CA -19.8011 -5.37249 43.4545
CA -6.04086 -33.2351 67.7449
CA -29.8053 -20.1322 66.4691
CA -16.1175 -12.6838 68.1268
CA 5.45848 -5.74604 58.4546
CA 6.20722 -12.8296 38.3745
CA 15.2325 -11.8827 77.038
CA -0.906706 -5.15627 42.6724
CA -21.5161 -19.988 66.4063
CA -4.17107 -16.1717 24.3903
CA -23.1046 -29.3156 66.7856
CA -6.37291 6.60068 74.3542
CA -15.5568 -12.0478 65.2208
CA 8.19045 -10.6581 46.3178
CA 8.19374 -47.9274 53.346
CA -12.1379 -9.7344 61.0985
CA -25.0053 -23.8663 27.8831
CA -1.27771 -18.97 20.2766
CA -13.9831 -2.0547 37.3075
CA 22.6382 -3.56008 78.888
CA 8.08008 -3.93306 47.651
CA 6.25666 -5.44139 70.9541
CA -3.75578 13.1766 61.0777
CA -16.1139 -9.53924 43.5518
CA -40.8704 -20.5607 55.5577
CA 4.88234 -30.6081 46.7406
CA 0.340437 2.93534 49.8517
CA -21.541 -0.0355393 46.9439
CA -9.01094 0.126172 70.5482
CA -6.50865 -26.7004 56.1491
CA 18.656 -0.969523 51.7512
CA 7.43991 -21.187 65.7755
CA -26.4551 -17.291 36.5507
CA 2.22205 -36.7812 44.1565
CA 15.8555 -21.4225 48.5161
CA -42.6213 -25.9378 57.0611
CA -1.39666 -18.514 23.9598
CA -1.78135 -29.5507 55.4466
CA 10.4622 -9.01356 71.3597
CA 7.91409 -5.45645 52.4193
CA 1.89094 -27.3585 55.8345
CA -22.6975 -7.24996 45.258
CA -6.67217 -6.95869 52.5116
CA -6.36154 15.7073 66.9585
CA -27.7766 -8.68628 63.2707
CA -26.4994 -23.0346 57.071
CA -24.806 2.94594 54.2086
CA -26.6309 -23.0341 55.2011
CA -43.8931 -19.3699 57.7921
CA -16.7731 -16.7943 37.9291
CA -14.8373 -5.85257 38.0935
CA 4.55281 -27.153 66.1686
CA -1.41448 -30.0006 52.9535
CA -40.6329 -13.347 54.7887
CA -20.6647 -19.3423 55.8106
CA -0.552174 0.515177 78.0723
CA -12.4809 -19.346 45.8939
CA 4.51208 -31.8294 37.3823
CA -21.3628 -10.5797 47.1157
CA -33.5603 -13.8864 41.9136
CA 8.83668 1.38862 50.3327
CA 22.4327 -8.4317 49.089
CA 18.2699 -12.5924 79.0059
CA -8.57629 -8.86585 64.0952
CA -6.89441 -24.1629 18.5274
CA -0.543774 0.602438 79.8722
CA -9.31777 -19.2773 44.7843
CA -12.9698 -14.029 35.0129
CA -21.1667 -1.75279 48.5623
CA -9.04175 -21.8202 62.7268
CA -11.8611 -2.33274 37.6127
CA 21.2076 -8.38022 76.6127
CA -5.55744 -5.34474 63.5821
CA -1.51657 -20.7766 29.0747
CA -23.253 -26.7303 63.8533
CA 0.856379 -17.6824 19.5993
CA 3.41863 -21.4525 34.9484
CA 4.84001 -6.56781 73.2481
CA 0.383936 -26.5201 64.3047
CA -6.01076 -34.9581 57.8432
CA -8.53168 -3.65329 48.0637
CA -0.806701 -26.7813 66.3253
CA -4.1746 -10.1602 67.9319
CA 3.44892 1.31843 38.5621
CA -9.85355 -32.799 57.6827
CA -25.3825 -28.0947 61.1012
CA 8.77185 -30.9626 38.3622
CA -17.5419 -0.592478 55.4749
CA -2.73741 6.49408 63.8022
CA 13.1496 -6.02262 36.4291
CA -0.877193 -22.4598 66.7012
CA 22.222 10.0589 48.91
CA -0.798998 0.517439 75.9441
CA -5.19406 3.90931 69.9284
CA -14.9826 1.7882 47.5181
CA -13.2464 -7.91521 48.9658
CA 5.6898 -10.4031 53.7269
CA -19.5505 6.97223 47.564
CA 4.14992 -31.9475 48.3529
CA -18.588 -34.3358 77.3693
CA -49.601 -17.487 51.4331
CA -11.1401 -9.79128 50.1765
CA -0.0905994 -20.7115 65.6067
CA 8.23218 1.89568 62.905
CA -1.80545 -0.290736 57.5265
CA -10.783 4.49239 76.2601
CA -6.16145 -7.5379 68.0798
CA -9.66679 -4.94622 68.6553
CA 3.68824 -23.6032 68.7801
CA 8.54748 -29.3559 43.4923
CA -31.4536 -23.843 66.3075
CA 2.46218 -25.2441 65.9108
CA 10.746 -29.2801 51.23
CA -1.45359 -1.69795 71.2703
CA 19.9136 -19.2058 46.227
CA -23.9847 -33.8782 67.1514
CA -3.62848 11.1009 60.4966
CA -10.7496 -7.72411 59.4872
CA -28.9958 -15.9539 62.9295
CA 20.0029 8.80787 46.911
CA -36.6873 -11.8629 44.0126
CA -4.2333 1.47533 52.1093
CA -15.2528 -22.07 45.259
CA -5.14353 -0.812525 72.596
CA 5.423 -4.32807 72.7712
CA -23.2845 -28.5373 51.1066
CA 2.29448 -24.5781 19.698
CA -12.1877 -5.73132 60.4124
CA 0.374857 0.514475 52.2994
CA -11.0493 -0.44278 37.894
CA -19.4344 -4.28165 40.7379
CA -11.9391 -18.0666 34.8073
CA 7.03517 -3.27851 46.1724
CA -19.7653 -9.36391 58.8262
CA 5.32911 3.76325 32.4972
CA -18.5192 1.86072 45.5824
CA 0.796398 -10.0454 47.7636
CA -16.2292 0.390304 36.195
CA -35.1036 -28.5337 58.7344
CA 18.6009 -43.1286 47.7358
CA -17.9157 0.229468 43.0924
CA -2.0948 -2.63437 61.6916
CA 9.08452 -13.9398 80.3473
CA 2.73796 -22.5141 59.1349
CA -24.124 -19.3693 34.5171
CA -9.75725 -21.9705 56.5112
CA -15.0107 -25.5372 59.2722
CA -14.9482 -34.5846 74.3691
CA 7.85832 -26.6012 37.4075
CA -26.3191 -1.90348 50.006
CA -8.5548 11.401 59.4679
CA -32.3976 -17.4408 65.4306
CA 11.5215 -11.2202 72.3043
CA -3.86122 -5.93067 71.6228
CA -29.9663 -14.9235 49.9174
CA 8.3481 -40.5812 37.0814
CA 0.286101 -32.0318 57.8764
CA 12.6717 -5.0741 56.8254
CA 13.3722 -41.6504 50.983
CA 20.14 13.2737 49.3017
CA -31.3761 -19.6002 61.2224
CA -5.55938 -29.5746 15.534
CA -16.5575 -17.9443 68.893
CA -32.6614 -8.81015 58.0508
CA -7.36955 13.2141 60.8179
CA -1.57503 -33.1469 56.3859
CA -10.9367 -3.13473 39.8274
CA 18.1308 -6.48876 78.3153
CA 6.00903 -10.0582 48.9898
CA -6.64845 -6.4657 69.6992
CA -38.3982 -15.3143 53.4799
CA 21.7663 -5.45255 80.3438
CA -19.6011 -11.3349 57.4249
CA -13.205 -34.0291 63.7897
CA -10.2675 12.445 59.1079
CA -23.513 -22.8726 47.3188
CA -33.7763 -12.9851 63.8986
CA 4.23308 -3.49232 64.1739
CA 0.669833 -4.57266 63.7026
CA 18.2756 -41.0982 44.3637
CA 1.82934 -32.5822 70.9442
CA -10.7246 -13.5673 34.0649
CA 17.5049 -18.2903 44.9479
CA 1.42867 -33.1083 44.2651
CA 10.6061 -3.43568 75.7134
CA -4.44124 -31.7041 68.6365
CA -6.42655 2.35973 71.7967
CA -26.4604 -13.922 60.274
CA -7.88415 -0.791982 42.7267
CA -28.9259 -26.4026 63.8514
CA -7.52729 -4.60736 42.5361
CA -6.64077 -28.5473 14.0266
CA -6.43915 -17.8066 25.615
CA -7.35873 -16.7484 23.3106
CA -17.0528 -1.51726 37.3534
CA 1.32753 -8.62257 42.9977
CA -12.705 -17.7657 64.383
CA 1.5993 -32.9919 61.1505
CA -16.7067 -35.7965 75.7809
CA -2.09313 -5.52287 67.5933
CA -33.9856 -16.5166 41.8708
CA 7.43308 -11.4864 74.731
CA -28.8834 -8.67057 60.6123
CA -26.3791 -19.7342 60.0279
CA -6.65931 -2.85109 67.0615
CA -13.5683 -19.1648 43.6693
CA -1.28907 0.481897 74.0138
CA 9.14462 -41.4059 46.5591
CA 2.21018 -24.361 61.4895
CA 2.73574 -20.6828 20.279
CA -22.3381 3.72519 51.8462
CA -24.0272 -25.7875 62.2248
CA -6.6953 -4.5807 54.9638
CA -2.93133 -1.12641 72.2004
CA -22.3128 -21.4304 59.4167
CA -30.4587 -18.2348 59.9577
CA 11.3875 -4.17152 37.0492
CA 24.9711 -6.69663 73.6698
CA 11.3408 4.8835 50.6972
CA -0.479982 -6.02074 65.3254
CA 15.605 -14.8249 50.4101
CA 7.57004 -8.65969 34.1688
CA 0.531265 -19.189 21.5122
CA 8.85581 -4.6725 38.7339
CA 13.7299 -25.7204 50.1551
CA 8.43936 -40.4747 58.5023
CA -4.02044 11.7539 65.3322
CA -33.426 -29.7809 59.1187
CA -13.4947 13.7575 55.3049
CA -34.2021 -10.9423 62.5141
CA -14.5492 4.06031 56.5165
CA -3.97696 -24.6507 14.5303
CA -15.5317 -18.7322 40.6613
CA -18.5262 -12.3779 44.6855
CA 0.824401 -30.0004 57.0473
CA -7.9294 -21.617 70.7957
CA 4.44565 -43.7969 53.9973
CA -8.15568 -35.6736 66.7604
CA 7.18973 -43.5863 38.2607
CA -4.82021 1.22172 74.585
CA 5.47632 -8.93061 59.208
CA 2.83023 -41.9616 43.8005
CA -22.0732 -20.7372 62.4335
CA -11.6308 -33.7736 61.8956
CA -29.5238 -28.6355 67.0038
CA -20.6165 -22.2611 49.5919
CA 9.79012 -10.798 49.8867
CA -23.1773 -30.1124 55.6391
CA 7.33883 -7.3068 65.3631
CA -14.8143 -22.0811 56.0302
CA -13.2377 -10.1137 50.6785
CA 3.86648 3.01993 64.4679
CA -11.4487 -13.3804 31.0773
CA 11.778 -49.2592 53.7643
CA -5.06252 -2.62245 41.6651
CA -2.74643 1.76126 66.474
CA -23.2454 -25.0114 60.1829
CA 14.4844 -28.4369 46.8385
CA -26.3325 3.38857 57.3428
CA 14.161 -40.1972 49.4071
CA 7.51091 -6.95984 53.8253
CA -3.24521 -12.0093 68.9987
CA -0.502622 -6.73648 41.2179
CA 13.8921 -8.22352 56.5123
CA -23.376 -15.6086 47.0129
CA -30.7197 -22.8782 62.8147
CA -3.69247 -22.8818 66.4576
CA -7.98908 -18.8281 26.4414
CA -2.02975 -18.4726 62.8302
CA -12.1232 -30.7917 58.3592
CA -2.62607 -0.640044 55.636
CA -18.9108 -32.1624 70.4317
CA 1.57412 -34.8728 62.0997
CA -15.2094 -16.0335 31.8362
CA 13.458 -31.438 53.5212
CA 1.78431 -8.38212 60.8269
CA -10.0059 -3.5028 64.0324
CA -19.703 -30.6707 66.2467
CA -24.7618 -11.1337 46.5572
CA 0.686586 -35.5986 56.4402
CA -4.95272 -4.86451 42.2445
CA -17.0634 -6.46791 56.5144
CA -23.4752 -24.3031 29.7469
CA -13.8609 -6.57487 72.0066
CA -22.6697 -27.7381 66.0077
CA -18.228 -18.9858 43.947
CA -3.96937 -5.7565 55.6022
CA 3.97211 -22.596 26.0123
CA -6.99881 -11.0686 60.3341
CA -43.5448 -20.8121 53.4958
CA -6.84236 -4.03076 70.3589
CA 12.7794 -28.3235 48.8535
CA 6.93616 -13.1865 47.5428
CA -2.62322 14.3244 58.1342
CA -39.2242 -25.264 56.3226
CA 22.2353 0.647586 49.9153
CA 2.87843 6.68755 52.0732
CA 10.3906 -4.88701 55.4548
CA -12.0093 -8.69619 66.8113
CA -3.95441 -10.0395 70.9992
CA -9.49002 -5.67329 63.0985
CA 19.3673 0.562295 46.5303
CA -13.6735 -5.57652 36.6416
CA -5.35201 16.0929 60.8378
CA 17.2582 -19.2651 48.6738
CA -10.7408 -5.66457 71.9354
CA -33.3518 -16.5953 49.1636
CA -21.5416 -3.45194 54.8206
CA -5.98748 -14.9844 73.6759
CA 10.3569 -2.31912 54.3492
CA 6.95047 -41.0875 39.7734
CA -18.3038 -14.6216 53.4948
CA -20.4342 -31.0461 71.1271
CA 4.03639 -1.3538 63.5712
CA -9.56288 17.2297 58.999
CA -28.718 -13.9444 46.3936
CA -18.7375 0.298075 46.6512
CA -6.88831 -0.0634804 58.0031
CA 2.58438 -25.7008 36.7095
CA -0.721554 -26.2889 56.2489
CA -17.8578 -16.2908 60.4971
CA -2.64617 -31.7699 69.5625
CA 19.1259 -8.05597 49.84
CA 7.98106 -12.6116 44.1386
CA -14.9567 -12.0318 31.9031
CA -1.96383 -26.1785 59.2591
CA 5.47622 -6.46524 55.8051
CA 2.77857 -28.5439 73.1726
CA -29.0216 -24.0867 70.1154
CA -35.5919 -15.1328 49.6389
CA -21.9244 -26.3797 58.1891
CA 6.06809 -21.9395 69.5338
CA -3.71624 -30.9755 55.4476
CA -3.88208 -21.4214 57.4729
CA 1.35412 -24.3874 32.8882
CA 13.6331 -10.5741 45.0186
CA 12.5558 -3.05716 72.0445
CA -31.0572 -16.7294 45.1664
CA 14.4133 -50.1692 48.5794
CA -45.8585 -23.8195 58.6249
CA -22.8789 -37.2646 76.465
CA 3.99172 -25.158 61.8598
CA -23.6444 -16.8105 51.4667
CA -15.3791 -2.6797 40.1338
CA -2.67193 -20.4091 64.3299
CA -36.3412 -13.5366 64.3795
CA -45.0591 -19.7121 49.449
CA -36.1895 -16.1666 46.6264
CA 3.88312 -39.1279 57.2994
CA 16.7469 -2.86206 71.6813
CA 5.30065 -29.9544 39.4097
CA 2.84599 -23.5531 27.8725
CA -19.6379 -17.7297 35.8182
CA -27.1205 -12.2264 59.0372
CA 3.4585 4.66673 63.0888
CA -7.67528 -25.296 22.8841
CA -17.6138 -11.0248 29.8487
CA 11.2516 -47.514 50.7041
CA 13.4843 -8.75097 52.8474
CA -6.17149 -5.47901 44.4846
CA 1.85376 -28.7473 13.1019
CA 17.9989 2.45366 48.8642
CA 6.31644 -13.1175 76.3719
CA -15.9251 -19.839 48.5031
CA 5.51157 -6.44464 78.2659
CA 2.28799 4.34746 64.7128
CA 24.3731 -8.7489 81.7237
CA -1.14332 -7.27632 48.1658
CA -5.71782 -34.1418 54.3164
CA 2.69785 -26.7911 18.4035
CA -22.9829 -12.6695 46.0954
CA -17.9509 -34.0954 75.5132
CA 10.0383 -45.8965 49.8159
CA 4.90522 -21.7567 58.1112
CA 0.750528 -8.99431 40.3985
CA -13.5661 -11.9733 30.103
CA -21.0479 -13.7978 46.6065
CA -20.0082 -1.61068 58.6763
CA -14.2866 3.31652 33.9863
CA -15.9455 -14.6564 73.9143
CA -20.8545 -21.2955 46.9693
CA -9.79191 -20.1783 67.0369
CA -21.4738 -13.9053 43.5259
CA -7.02163 -8.6983 51.8183
CA -20.3418 -24.6912 64.1966
CA -22.224 -30.5439 48.2096
CA 7.09256 -3.76945 50.0295
CA -12.6186 -6.86779 53.935
CA -6.68998 -7.07931 59.9305
CA 21.5203 5.51792 45.9914
CA -11.5133 1.94616 79.9983
CA 1.59164 -0.893447 77.5523
CA 7.71968 -38.4816 43.0316
CA -29.8628 -27.3285 61.6443
CA -0.13249 -4.89371 68.5813
CA 14.7826 -12.5264 54.0273
CA -13.0853 4.52744 54.5842
CA -6.98563 10.6572 60.7899
CA 0.455639 -17.8248 63.4799
CA -4.89923 -31.1902 61.0162
CA -10.3476 -10.379 52.354
CA 3.95474 -39.642 59.161
CA -6.00595 -21.8464 19.96
CA -16.2289 -14.2087 69.7727
CA -11.0305 -7.93921 64.7252
CA -4.1173 -13.6352 23.8577
CA 4.92045 -29.1584 36.2922
CA -9.21037 -3.79494 59.5567
CA -1.03388 -21.8461 18.5437
CA -7.40195 -15.3808 68.574
CA -16.4274 -33.2497 76.4236
CA -4.71947 -32.7253 58.924
CA -22.9195 -23.2531 65.8807
CA -10.8908 10.6394 60.798
CA 5.25739 4.00896 36.6583
CA 4.91228 -22.8185 64.1055
CA -21.6736 -19.5932 49.398
CA -22.2333 -23.8332 34.1149
CA -20.4611 -19.3088 57.6906
CA -4.88077 -26.866 57.9259
CA -15.1723 -3.73974 35.1563
CA -3.97445 -25.211 18.6504
CA -7.35404 -1.72476 72.6321
CA -2.87648 -5.01993 73.8259
CA 4.55172 -23.5297 30.6551
CA 15.6797 -25.9863 47.6544
CA 2.37431 -26.5127 63.9421
CA -19.3233 -34.0917 72.032
CA 0.543625 -30.6076 61.5981
CA 8.534 -0.331224 48.5821
CA -11.6002 -6.62231 50.8753
CA -23.1973 -20.1246 50.5945
CA 2.59391 -29.1122 17.5088
CA -19.395 -27.4694 56.9692
CA -0.912268 -28.7493 37.7266
CA -4.78289 -3.95257 60.2445
CA 7.61853 -43.0807 41.8458
CA -12.1078 -4.21861 72.2139
CA 6.0379 -6.70035 75.3758
CA 6.3929 -41.5688 44.6436
CA -6.66871 13.8016 57.1648
CA 4.13048 -12.877 39.4504
CA 0.751641 -9.53893 72.6894
CA 7.98255 -32.9532 47.3794
CA -20.2159 -14.4058 48.1015
CA -10.9963 -1.3632 54.5435
CA 15.7198 -5.40798 51.338
CA -7.03146 15.0885 63.6435
CA -0.701605 -28.79 66.6447
CA 22.2745 15.155 46.2199
CA 6.3418 2.98996 38.3439
CA -40.6585 -15.8 56.9586
CA 3.11018 -9.64931 43.0918
CA 0.503775 -7.35025 70.9622
CA -3.75135 -2.88171 52.818
CA -14.8697 -5.7929 50.432
CA -3.40627 -3.71814 65.9607
CA -20.2128 -15.7951 59.1899
CA 2.81477 -3.16172 41.4304
CA -5.28995 -20.0703 13.8544
CA -24.2311 -24.2218 34.2472
CA 7.08132 -7.73111 39.2385
CA 7.69218 -6.67346 55.8321
CA -8.06458 -27.2698 61.7531
CA 2.84126 -30.8474 41.6212
CA 1.82987 -11.3336 45.6546
CA -21.7837 -15.5455 47.9597
CA -18.9361 -20.3591 54.9139
CA -24.2678 -14.5695 60.4959
CA 7.11144 -6.99383 58.1555
CA 9.49154 -16.0574 77.9106
CA -11.4316 -6.67723 57.0929
CA 16.6572 -4.17335 74.4928
CA -31.879 -25.3094 68.5434
CA 13.1258 -16.7583 77.7845
CA 0.286183 -0.640005 47.0965
CA 1.75753 -27.3942 66.5501
CA -4.58667 14.4664 58.9708
