489

CA -16.7959 -15.3257 66.272
CA -15.6361 -25.0715 70.6621
CA 3.13658 -4.86384 48.0313
CA -33.333 -15.1736 67.0801
CA 13.0924 -12.7732 40.3792
CA 13.7709 -3.47035 49.8354
CA -13.9007 -12.0824 41.7776
CA 10.5928 -13.1099 83.1434
CA 14.0549 -12.2121 79.1371
CA -0.603079 -1.86762 64.7846
CA -6.54352 -3.17908 58.0688
CA 0.479029 -32.6154 72.8453
CA -1.29069 -18.7942 58.3684
CA -38.4556 -18.0164 57.0654
CA -9.99922 -3.55205 59.4066
CA -11.6154 8.16401 56.8335
CA -1.40817 5.25978 67.7661
CA 21.2199 -14.8086 47.8733
CA 5.09915 -38.8193 40.1701
CA -11.4239 -12.3854 41.8019
CA 15.0066 -11.2809 77.2323
CA -20.4255 -17.2732 60.8454
CA 4.16433 -30.003 16.3435
CA -15.3521 -2.71565 73.8696
CA 2.08213 -6.33315 47.8152
CA -23.066 -10.9934 42.127
CA -7.2007 -21.1859 16.0777
CA -5.75677 -20.0853 17.3131
CA -32.4354 -22.0862 60.7239
CA -7.23486 -15.9144 40.36
CA 9.48961 -29.216 60.417
CA -0.162262 -13.2744 69.6646
CA 5.20947 -6.32718 69.7669
CA -18.9492 -9.86847 47.295
CA -17.6354 -4.52548 50.8051
CA -31.1539 -28.8806 67.9586
CA -11.6936 -2.97613 43.7228
CA -37.3697 -29.6901 60.6182
CA -5.76176 -9.07776 69.8692
CA -21.7129 -24.2493 63.5395
CA 7.86472 -4.97838 58.4219
CA -8.30021 -17.474 26.7498
CA 4.16044 -21.4277 65.1559
CA 10.1443 -11.447 80.3706
CA -6.00799 -16.1834 49.8216
CA -12.0857 -18.3324 68.2368
CA 5.02806 -8.3012 47.6536
CA -13.3304 -7.98435 45.9964
CA 16.8182 -34.5574 55.3681
CA -5.27296 -20.4567 44.7595
CA 18.0269 -26.2724 44.1155
CA -25.5715 -12.1394 49.2217
CA 4.49382 -32.7152 44.7272
CA 4.7767 -35.9515 54.0195
CA -0.623179 -17.4199 54.7663
CA -20.7142 -38.7079 66.2334
CA -19.1068 -6.52421 57.5577
CA -9.22023 -8.50611 70.0655
CA -14.1019 -18.9813 56.8954
CA -34.033 -14.8251 46.4263
CA 23.551 -9.71504 68.6927
CA -12.2219 -8.8432 40.2228
CA 1.12524 -3.19538 42.335
CA 0.298627 -15.715 28.0035
CA 2.37364 -9.55725 49.5665
CA -4.96434 -17.4853 45.4977
CA 6.18347 -11.1664 75.1025
CA 20.5601 -34.5656 58.1491
CA -14.6476 -21.9202 50.8376
CA 5.04057 -28.289 39.3693
CA 6.70352 -19.4221 56.6104
CA -10.9274 -8.10068 74.974
CA 1.17474 -26.3155 68.2405
CA 18.2699 -12.5924 79.0059
CA 6.55909 -45.8765 47.9602
CA 2.42005 -28.8762 39.7648
CA -17.4036 -16.989 70.3373
CA -22.2346 4.7759 56.9856
CA -12.9698 -14.029 35.0129
CA 3.35563 -35.0343 55.7369
CA -1.70377 -32.63 69.3829
CA -11.4172 -2.66176 62.8431
CA -6.97175 -7.0229 39.9152
CA 4.22175 -28.2209 13.4868
CA -1.51657 -20.7766 29.0747
CA -11.4124 -13.2479 72.4576
CA 17.9805 3.02845 50.6098
CA -11.8191 -0.685619 72.9698
CA 9.35246 -30.587 44.5444
CA 3.20232 -31.7995 56.8318
CA -17.2955 -20.4552 31.0267
CA -17.6091 -27.2212 45.3373
CA 9.86974 -9.59706 32.7906
CA -31.4288 -27.8806 63.5516
CA 2.52998 -20.6682 39.8838
CA -9.85355 -32.799 57.6827
CA -11.9172 -7.68449 69.7122
CA -17.0739 -19.8498 67.6283
CA -22.9091 -38.4298 73.5604
CA -2.73741 6.49408 63.8022
CA -9.30026 -12.7235 54.4594
CA -32.53 -26.2102 49.4098
CA -18.6931 -30.1402 41.3801
CA -13.566 -23.6224 77.8623
CA -11.8444 -22.792 50.7766
CA -1.99026 -20.4767 63.2885
CA -0.423049 -24.9524 13.9359
CA -20.0478 -16.611 68.0688
CA -17.6657 -20.1391 44.3888
CA 4.14992 -31.9475 48.3529
CA -26.6567 -36.4743 73.8248
CA 4.79628 -32.5945 14.3908
CA -15.3141 -16.8867 53.5094
CA -6.32584 -32.3952 54.2045
CA -8.47405 -16.2908 47.5544
CA -19.9446 -14.8393 66.3043
CA -13.9537 -32.7664 60.7624
CA -6.16145 -7.5379 68.0798
CA -4.29819 -23.4712 13.47
CA -28.519 -23.6433 66.8577
CA 9.646 -23.4643 66.9086
CA -11.7256 -11.9767 48.012
CA 3.22632 -14.2689 35.4745
CA -14.1094 -26.1176 77.9126
CA -12.8978 -14.8073 59.8143
CA -38.2621 -17.4881 53.6843
CA -21.2259 -34.5227 70.2115
CA -3.62848 11.1009 60.4966
CA -40.7376 -11.8582 56.6436
CA 19.7764 -9.82026 73.8679
CA 5.48963 -3.28929 70.6823
CA 12.4241 -29.6409 53.5227
CA 5.34638 -32.9318 49.6067
CA -3.00953 -31.4805 58.6041
CA -20.3784 -12.537 37.7872
CA -35.499 -12.4929 47.6447
CA -20.9583 -4.74583 61.0767
CA -38.4395 -16.0419 48.787
CA 10.8469 -8.99282 68.3675
CA -23.5073 -8.1205 58.2714
CA 12.2866 -13.4988 81.0799
CA 17.2589 -1.18699 48.5066
CA -10.9684 -21.8352 52.7486
CA 7.14228 -25.1902 67.2185
CA -0.569269 -32.512 54.9189
CA -19.0886 -18.5155 61.1448
CA 10.9278 -6.84952 80.2341
CA 0.796398 -10.0454 47.7636
CA -9.65673 -12.0511 41.5156
CA -15.8427 -18.187 38.1586
CA -39.6902 -11.8576 62.2953
CA 2.47933 -20.8816 24.7111
CA 22.515 -31.8609 39.5371
CA 9.08452 -13.9398 80.3473
CA -17.7565 -19.7108 54.2031
CA 21.8251 -9.6307 74.0201
CA -1.23977 -13.4443 57.6487
CA 13.913 -1.03713 58.5315
CA 18.5493 5.61569 52.6502
CA -26.3216 -33.0926 71.0118
CA -33.9802 -31.2947 57.4426
CA -15.0705 -20.4653 67.8997
CA 1.96532 -0.746449 47.4872
CA -29.0113 -12.9519 63.0271
CA 11.1222 -8.94982 55.6948
CA -30.6354 -19.0158 65.706
CA -31.3065 -24.3341 60.0199
CA -11.6634 -7.54944 65.8062
CA -7.34396 -10.8309 41.9924
CA -4.11939 2.15344 59.6554
CA -8.98328 -14.8325 50.7238
CA 13.2109 8.91434 54.3402
CA -10.4713 -12.7502 69.6091
CA -10.0312 -12.8239 62.5033
CA -13.5461 -15.9727 61.9623
CA 18.1915 -21.4795 47.3523
CA 2.24108 -20.1277 65.3212
CA 14.4246 -9.49858 77.2863
CA -12.0059 -13.0763 56.4756
CA -14.3639 -21.3164 42.6486
CA -9.56398 -14.9955 55.5829
CA 5.81702 -32.6724 35.3498
CA 26.7297 -4.22774 72.0296
CA 14.5794 -44.194 53.1292
CA -10.1039 -21.7675 18.1419
CA -10.2675 12.445 59.1079
CA -3.1442 -16.2486 27.3887
CA 12.2294 -14.6631 44.4553
CA 4.23308 -3.49232 64.1739
CA 19.6351 -6.1829 76.5969
CA -34.9367 -30.2346 66.2235
CA 9.28967 -23.9527 65.1871
CA -0.696319 -39.3728 75.6985
CA 17.5049 -18.2903 44.9479
CA -19.4937 -39.8518 68.9782
CA 10.6061 -3.43568 75.7134
CA -22.0893 -0.390996 54.4247
CA -1.29645 -28.4247 68.67
CA 21.6418 -16.5348 44.5095
CA -36.3553 -17.7223 43.4627
CA -26.8899 -3.44128 51.8713
CA -24.5161 -21.2057 68.841
CA -3.50824 -30.3889 55.0901
CA -3.32449 -13.3206 75.0764
CA -30.1801 -16.4035 55.1193
CA -12.8994 -25.6886 74.7316
CA 19.1772 -31.0902 46.3131
CA -21.1053 2.24806 60.2647
CA 15.9727 5.25953 52.5577
CA -37.2909 -16.5988 61.0934
CA -17.9869 -26.8595 73.9883
CA -33.9856 -16.5166 41.8708
CA -7.33497 -18.9524 60.4878
CA -2.21211 14.2063 61.0413
CA 0.626111 -16.1799 33.3711
CA -30.1418 -16.3592 64.3393
CA -30.053 -22.1875 63.7674
CA -13.7156 -16.6142 30.8971
CA -11.4265 -12.6598 60.5568
CA 22.8254 -11.8309 65.3539
CA -42.3572 -9.795 61.94
CA -5.64782 -18.0804 22.0808
CA 12.3719 -9.64323 45.9281
CA -6.6953 -4.5807 54.9638
CA 11.3669 -7.05979 58.5706
CA -1.96114 -37.9451 74.9192
CA -20.8774 -35.6401 67.8272
CA -12.0137 -27.5711 74.278
CA 10.7027 1.43488 56.4593
CA -31.7649 -25.3703 50.9685
CA -0.989535 14.1424 56.5692
CA -16.0745 -6.47923 42.5658
CA 6.03093 -13.7647 37.2651
CA -19.0978 -4.03732 66.994
CA -2.93876 -22.3106 53.7566
CA 9.70489 -6.93747 37.9843
CA 0.42647 -5.51036 63.4567
CA -11.1005 -28.8212 75.9387
CA -11.5738 -1.38718 60.7865
CA -9.76388 -20.6608 57.0548
CA -19.5571 -41.9191 66.3988
CA -6.7761 -25.0213 57.4084
CA -15.0186 -17.737 55.8485
CA -15.5317 -18.7322 40.6613
CA -5.64507 -10.7184 72.1931
CA -14.0656 -6.11665 67.5506
CA 7.03158 -5.05215 45.6807
CA -25.9565 -1.5916 56.5211
CA 15.01 -44.9656 50.1851
CA 0.949574 -16.1572 36.6484
CA -15.5045 -26.7326 37.0615
CA -4.26311 -1.11411 58.4852
CA -2.19438 -42.2814 77.4118
CA -20.6301 -29.1125 76.9633
CA 10.1928 -16.8495 84.3038
CA 20.4459 -10.378 52.0283
CA -6.50605 -22.3739 58.3968
CA 1.43943 -17.0814 65.8563
CA 5.7262 -36.3231 40.1258
CA -4.30097 -7.93164 56.379
CA 9.95709 -16.4468 36.4475
CA -11.4572 -19.5013 74.9145
CA -19.8421 -31.862 76.7734
CA 5.2031 -22.4354 28.105
CA -6.69476 -13.737 48.4077
CA -33.2582 -14.9009 64.532
CA 10.0903 -46.8365 51.3746
CA -17.1515 -24.6627 39.4233
CA -11.3781 -19.144 59.1631
CA -13.4788 -34.6613 57.0004
CA 14.161 -40.1972 49.4071
CA 13.4291 -32.8408 47.8654
CA -12.2526 -26.6107 76.8506
CA 14.5196 -13.265 44.514
CA -18.3197 -41.3207 67.6796
CA 17.2737 -16.0308 50.1083
CA -8.56665 -24.486 56.1997
CA -35.1412 -19.7626 56.75
CA -34.7567 -15.7813 55.2982
CA -1.24019 -30.1319 61.4057
CA -1.4541 -39.0564 79.6016
CA 7.88514 -6.41031 48.047
CA -13.1497 -4.36539 69.8004
CA 4.05738 -32.0838 53.9212
CA 12.0497 -41.91 47.8145
CA 13.458 -31.438 53.5212
CA -16.8414 -6.42786 45.3012
CA -14.5509 -23.1358 49.1225
CA -21.9291 -16.1164 59.8963
CA -30.148 -16.5455 41.8422
CA 8.67157 4.65606 40.1043
CA -13.2545 -3.13854 60.6539
CA 7.29025 -1.48032 38.9088
CA -29.4228 -28.3465 54.0896
CA -24.9155 -21.0083 61.9159
CA 4.77685 -6.65813 62.6672
CA 12.0113 -3.67516 61.3233
CA -13.3469 -15.6799 55.973
CA 6.20902 -29.5479 33.4536
CA 4.08742 -10.6141 58.9164
CA -17.6526 -24.6809 42.3413
CA -13.1476 -19.6729 44.2063
CA 6.27758 5.17554 37.9947
CA -10.9595 -10.6736 78.7731
CA 10.3333 -39.2816 49.343
CA -7.53578 -24.8447 54.4455
CA -17.6657 -38.2654 74.6472
CA 5.29712 -31.8032 43.3268
CA -2.87742 -15.3395 30.0538
CA -6.59379 -26.699 13.9458
CA 17.5661 -10.0009 74.6035
CA 1.02043 4.77711 62.9181
CA -13.6002 -9.33333 69.1902
CA -22.5791 -17.6439 55.306
CA -5.35201 16.0929 60.8378
CA -15.8216 -12.4683 28.532
CA 7.3699 -20.2417 58.4487
CA -9.42864 -19.6315 47.3147
CA -21.5416 -3.45194 54.8206
CA 4.85117 -9.22331 74.7817
CA -11.7049 -18.6191 61.2772
CA 3.34132 -12.9514 62.452
CA -24.0168 -17.6198 57.3278
CA -20.9288 -32.3141 72.6501
CA 16.0664 -37.2146 46.1433
CA -14.8041 -9.75641 46.3362
CA 12.748 -36.5594 47.5148
CA -15.6959 -24.9277 41.6402
CA -6.88831 -0.0634804 58.0031
CA -2.20122 -12.9878 70.8622
CA -5.94901 -15.3067 61.9123
CA -11.5302 -17.0794 52.2046
CA -2.08275 -14.5032 59.2445
CA -6.76823 -8.23119 63.193
CA -4.09904 -39.0164 72.8882
CA -14.9567 -12.0318 31.9031
CA -2.31455 -22.757 30.2541
CA 3.41599 -4.28733 38.0229
CA -14.4078 -7.72988 41.9519
CA -18.1687 -11.4923 46.5975
CA -33.33 -16.5068 51.331
CA 18.3234 -41.6452 51.9452
CA 7.47805 -45.3101 45.0002
CA -4.73007 12.4226 58.4616
CA -18.9615 -3.34107 57.0914
CA 1.35412 -24.3874 32.8882
CA -13.1424 -27.5991 41.8084
CA -1.87578 -2.2946 54.903
CA 8.38987 -10.9292 40.7848
CA -39.3758 -16.4156 65.2097
CA -14.4776 -8.0091 51.747
CA 13.1565 -4.30123 52.1081
CA -15.9442 -19.5948 65.7153
CA -6.92571 -3.81761 38.7597
CA 15.6802 -3.52976 56.1358
CA -8.08843 -13.0215 40.2886
CA 2.44701 -29.8015 42.1227
CA 23.8067 -5.0249 76.6653
CA 14.6059 -5.59256 78.5355
CA 18.5708 -34.0495 43.1275
CA -0.964095 -40.7697 77.3272
CA -12.1305 -18.9623 36.9763
CA 2.84599 -23.5531 27.8725
CA -30.0755 -24.9052 61.5164
CA -0.336304 -4.03397 46.2068
CA 2.36564 -25.993 64.0075
CA -24.3195 -31.5654 65.7469
CA 0.476999 -34.3944 46.7724
CA 5.20084 0.185982 47.9605
CA -39.9732 -30.038 57.7178
CA 8.9946 -6.57339 75.852
CA 8.54513 -30.7162 32.4586
CA 20.9939 -34.7339 41.4009
CA -7.9138 -14.6138 64.4189
CA -0.710354 -35.5268 74.746
CA -28.3532 -34.0016 72.6525
CA 7.60901 -47.0287 54.8476
CA -15.0908 -17.3188 68.6405
CA -1.14332 -7.27632 48.1658
CA 3.37557 -35.8523 35.4367
CA -26.8903 -22.5563 61.2684
CA -22.9829 -12.6695 46.0954
CA 1.85662 -19.1539 42.3815
CA -24.4293 -23.9709 62.4484
CA 8.65076 -12.7724 36.9356
CA -9.78916 -17.8512 47.6499
CA 9.67112 -43.0865 40.8879
CA -14.2355 -21.6998 45.3896
CA 7.46793 -22.2516 38.7737
CA 3.04541 -31.3076 58.8559
CA -1.40148 -8.60486 72.1258
CA -1.78929 -30.6131 67.0274
CA -13.9643 2.09409 69.1906
CA 10.1482 -8.72543 49.3433
CA 9.56226 -46.0789 48.0208
CA -12.7548 -12.1299 57.9573
CA -37.3887 -17.5919 67.4976
CA -38.294 -15.0025 60.9843
CA 20.7722 -16.9608 50.6268
CA -18.8944 -9.47965 57.8541
CA -16.9732 -36.4178 72.2357
CA 17.6748 -12.3203 81.1426
CA -10.179 -16.1635 61.4879
CA -35.8321 -24.6851 54.0669
CA -36.6853 -27.1228 47.0359
CA -20.2191 -16.2006 64.3683
CA -17.3768 -4.98174 46.2667
CA -32.5343 -18.5458 41.575
CA 0.382799 -31.3746 18.9354
CA 13.9689 -44.4675 47.9394
CA -14.1076 -15.5155 70.2907
CA 3.62314 -28.9891 46.0284
CA 10.3238 -42.4235 48.7607
CA -2.95655 -2.15691 65.3619
CA 23.6024 -10.9023 49.0133
CA -18.0343 -15.7863 71.7397
CA -7.50093 -8.81052 40.7792
CA -4.0159 -3.24257 54.8225
CA 3.88793 -0.252996 50.324
CA -1.03388 -21.8461 18.5437
CA 0.157437 -21.2342 70.5994
CA -12.3585 -4.64267 64.6828
CA -28.1982 -23.9266 63.6137
CA 9.00379 -27.2203 61.5022
CA 10.8968 -28.669 57.2808
CA 6.91918 -15.978 82.5683
CA -14.64 -21.3562 63.5632
CA 1.08046 -37.6285 47.7823
CA -19.4614 -15.1055 54.959
CA -16.5015 -6.9935 65.7379
CA 6.5176 -9.51051 58.5886
CA -23.7043 -0.706252 50.2088
CA -34.5621 -18.6762 51.3647
CA 2.91413 -22.8784 39.7008
CA -36.1582 -20.3577 65.9577
CA -33.1775 -26.0589 59.8579
CA 16.7848 -6.06651 77.471
CA -12.208 -7.0893 42.4884
CA -11.4441 -13.1659 83.1208
CA -24.5642 -14.5309 56.8921
CA -17.5656 -21.6753 58.8469
CA -12.3393 -31.0404 65.2546
CA -11.0397 -29.3742 67.646
CA -16.148 -13.0876 54.0638
CA 3.74589 -6.87733 60.6683
CA -24.65 -33.9623 71.477
CA -19.3785 -11.9406 62.9455
CA -3.93911 -32.3115 67.9091
CA 13.547 -4.04306 56.6894
CA -20.9535 2.9105 55.7313
CA 11.3185 -4.98076 65.979
CA 7.77959 -3.43573 50.9717
CA -13.3891 -18.3074 32.3574
CA -11.0976 -10.3058 62.0038
CA 3.30121 -17.1085 63.7438
CA 15.8457 -8.45894 55.6342
CA 0.184657 -28.4958 37.3801
CA 1.74188 -21.3474 58.9724
CA 6.537 -0.575501 46.4267
CA -10.1536 -9.62473 38.8026
CA -6.57361 -21.9426 60.643
CA 6.3418 2.98996 38.3439
CA -4.98189 -17.6082 28.261
CA -24.7879 7.19601 58.1558
CA 0.503775 -7.35025 70.9622
CA -15.5596 -15.0449 69.268
CA 12.4178 -19.0269 37.2131
CA -14.8749 -32.6984 75.6561
CA -14.766 -28.568 35.378
CA -33.4434 -36.68 57.9881
CA 3.71879 -30.0572 14.5722
CA -5.28572 -25.4847 54.69
CA -0.887348 -33.1562 71.2513
CA -19.3505 -28.6328 35.9758
CA -6.48433 -3.35413 62.0216
CA -8.24627 -19.5143 50.3366
CA -9.49799 -6.89582 39.837
CA -18.5741 -36.3636 80.8762
CA 4.04633 -23.7622 37.9668
CA -8.1736 -4.20306 68.6347
CA -4.00295 -24.6219 55.8066
CA -17.843 -6.33262 70.027
CA -17.1683 -4.08807 40.3332
CA -33.1976 -31.1161 61.2998
CA 24.454 -7.91786 74.654
CA -18.3362 -32.5469 77.755
CA -8.75397 -14.628 60.0591
CA 6.31667 -1.74127 49.8549
CA -2.94457 4.74236 64.5352
