489

CA 11.9858 -27.3098 43.1268
CA 9.02339 -29.8683 51.8349
CA 3.13658 -4.86384 48.0313
CA -4.34717 -10.7223 41.6832
CA -19.9095 -34.2978 57.0682
CA 13.7709 -3.47035 49.8354
CA -7.13869 -33.8707 76.3469
CA -32.6813 -15.2246 54.8535
CA -26.1529 -24.4555 66.5587
CA -0.603079 -1.86762 64.7846
CA -3.84476 8.76503 57.4515
CA 0.479029 -32.6154 72.8453
CA -7.78706 -25.9432 68.2718
CA -13.4483 -16.0824 51.5895
CA -11.7028 -17.9383 47.1987
CA -5.97282 -10.384 49.5039
CA 14.0116 -25.6512 66.875
CA 21.2199 -14.8086 47.8733
CA 5.09915 -38.8193 40.1701
CA -15.9408 4.2237 50.7919
CA -27.9677 -23.15 65.0245
CA 3.50898 -35.6221 39.8113
CA -15.8308 -26.5651 73.1518
CA -25.1112 -22.8516 67.1482
CA 2.554 -11.135 75.8403
CA -23.066 -10.9934 42.127
CA -18.459 -29.5279 74.1276
CA -19.6592 -12.3715 67.1958
CA -32.4354 -22.0862 60.7239
CA 7.95835 -10.425 31.0906
CA 3.71801 0.786557 39.4581
CA -0.162262 -13.2744 69.6646
CA -0.809386 -25.1298 37.9095
CA 9.70175 -9.52838 46.5126
CA -7.83745 -16.1905 71.7518
CA -16.4247 -19.613 38.9166
CA -15.7969 -7.47116 55.5973
CA -12.119 -12.567 38.6716
CA -15.9615 -29.0936 34.2083
CA -20.3487 -16.5134 57.3117
CA -20.8781 -26.3989 68.5157
CA -8.30021 -17.474 26.7498
CA -8.91685 -20.4104 46.4435
CA -3.68596 -37.9419 73.9894
CA 11.3699 -7.25408 64.4426
CA -10.0091 -31.2269 78.3829
CA 5.02806 -8.3012 47.6536
CA -30.3639 -32.8514 64.3391
CA 14.8774 -18.504 48.1894
CA 9.625 -38.2682 37.4251
CA 0.96461 -35.7084 57.9391
CA -6.56446 -30.6701 75.3678
CA -0.176809 -15.054 26.127
CA 6.96368 -35.6717 48.3578
CA -14.5261 -9.3673 50.2292
CA -9.90208 -37.041 81.1151
CA -19.1068 -6.52421 57.5577
CA -16.3586 -7.81064 27.4543
CA -18.3933 -24.5226 59.1903
CA -34.033 -14.8251 46.4263
CA 4.70815 -17.0379 40.8713
CA 5.08877 -27.971 45.2431
CA 1.12524 -3.19538 42.335
CA 0.298627 -15.715 28.0035
CA -15.969 -23.3 59.6411
CA -14.9953 -33.1702 70.8813
CA 1.03311 -0.76019 66.5874
CA 8.24987 -8.59479 44.376
CA -17.3341 -30.1857 78.9984
CA -13.7182 -6.77591 54.6413
CA 6.70352 -19.4221 56.6104
CA -10.8062 -5.1207 71.257
CA 8.09063 -25.7632 62.9501
CA -16.3934 -18.639 75.385
CA -12.6557 -19.706 55.1439
CA 4.78668 -35.5925 56.9439
CA 7.05061 -9.08621 33.3919
CA -25.1187 -18.6563 75.2322
CA -13.6585 -15.0087 29.7804
CA 11.2159 -44.4491 47.8526
CA -1.70377 -32.63 69.3829
CA -11.4172 -2.66176 62.8431
CA -8.11085 -1.68182 44.4623
CA -18.029 -17.8591 55.5005
CA -5.6952 -23.0801 63.849
CA 4.06089 -31.6543 49.2172
CA 17.9805 3.02845 50.6098
CA 1.2553 -22.8521 45.5074
CA 9.35246 -30.587 44.5444
CA 3.20232 -31.7995 56.8318
CA -2.26705 -17.1351 63.1376
CA -17.0533 -26.0551 76.8194
CA 4.76779 -40.3344 34.7209
CA 14.9209 3.7695 58.9241
CA -36.8991 -14.1422 54.5359
CA -7.86935 -30.5114 68.9518
CA -10.4121 -17.5658 63.9495
CA 1.19974 -9.33012 51.0824
CA -10.3865 -12.5618 74.6142
CA 18.4024 3.4105 54.9562
CA -13.9443 -29.8991 63.9104
CA 3.54848 -33.5962 75.2304
CA -35.6464 -13.8402 66.4078
CA -16.4072 -26.0917 62.8389
CA -10.7656 -13.3538 28.9926
CA -6.75981 9.40946 54.4114
CA -0.423049 -24.9524 13.9359
CA -1.02072 -13.304 50.1992
CA 3.71974 -27.9097 26.0488
CA 2.68794 2.53443 62.9266
CA 6.73004 3.05965 68.6255
CA -24.6053 -33.2239 64.1862
CA -1.68577 -35.8016 76.2568
CA 11.6275 -3.34275 60.7084
CA -19.9615 -23.0889 53.7099
CA 7.56615 0.261662 66.8418
CA 12.2435 -14.8325 38.0469
CA -6.16145 -7.5379 68.0798
CA -4.29819 -23.4712 13.47
CA 7.61401 -19.1525 25.5424
CA 9.646 -23.4643 66.9086
CA -11.967 -14.7952 63.7162
CA -14.7367 3.42433 52.1065
CA 8.92428 -42.9796 42.6727
CA -13.4682 -9.78912 29.8596
CA -7.11316 -9.6104 73.9784
CA -2.81742 -34.9014 74.6194
CA -3.62848 11.1009 60.4966
CA -40.7376 -11.8582 56.6436
CA -18.6889 -7.7425 51.7211
CA 1.79296 -17.9431 84.0702
CA -17.1913 -19.8346 53.7622
CA 7.6864 -6.93305 71.3238
CA 3.28116 -11.1441 84.872
CA -34.9008 -10.9274 63.8048
CA -4.48006 -6.06915 54.8103
CA -6.7938 -17.3221 63.045
CA -38.3822 -27.7143 47.5096
CA -22.1391 -14.5099 66.5509
CA -15.8739 -24.8827 66.1438
CA -7.75012 -34.3877 80.8937
CA -1.00985 -9.76599 49.4649
CA -13.0014 -2.11813 37.7338
CA 7.14228 -25.1902 67.2185
CA -4.81817 -23.6052 56.6602
CA -12.897 -18.1787 49.9441
CA -8.00594 -22.4325 63.9953
CA 5.66163 -15.3906 85.362
CA 9.79916 2.21864 47.9395
CA 15.9207 -26.9494 44.1102
CA -16.4473 -20.9363 60.4068
CA -20.3503 -32.3913 74.2609
CA -6.28301 -14.512 74.9219
CA -25.9161 -9.95221 50.2209
CA 1.61256 0.0305269 68.1225
CA -12.542 -15.1693 39.3806
CA -6.30888 -36.5253 77.3255
CA -3.37765 -9.74207 43.7992
CA -15.7132 -33.7428 74.4614
CA -4.93464 -20.775 69.1559
CA -25.1232 -25.804 65.4677
CA -15.0705 -20.4653 67.8997
CA -11.1186 -25.8847 42.3699
CA -37.8596 -15.2959 64.2117
CA 24.0379 5.759 54.2271
CA 2.08718 -39.2126 34.0459
CA -16.7688 0.652806 53.3962
CA -26.3469 4.4748 57.4869
CA -1.45502 -14.8152 77.5975
CA -20.9201 4.49952 58.7503
CA -17.3197 -29.7902 61.4009
CA -26.0755 -28.5335 65.8057
CA -35.2645 -18.7751 46.3469
CA -14.9645 -28.3704 68.2669
CA -38.7164 -15.6221 53.0265
CA 18.1915 -21.4795 47.3523
CA -7.71288 -3.52771 43.9811
CA -21.0683 -0.606863 52.7636
CA 6.37897 -5.1584 67.4537
CA 7.31148 -30.1148 45.8714
CA -11.5667 -17.4627 59.444
CA -16.8712 -12.7274 46.4355
CA -5.76553 -5.15596 43.4018
CA 9.27596 -33.7573 43.9936
CA -22.6513 -6.11861 50.6068
CA 5.56681 -30.7439 47.8931
CA -3.1442 -16.2486 27.3887
CA -35.2932 -13.7886 39.6788
CA -13.3078 -3.95382 73.7703
CA -20.2992 -28.8154 81.2556
CA -2.81454 -13.7137 24.5173
CA 9.38605 -10.2178 29.601
CA 14.2633 -26.3885 65.2177
CA -18.7299 -14.516 23.7801
CA -14.9459 -8.51907 39.3931
CA -11.1764 -9.78 72.3897
CA -22.0893 -0.390996 54.4247
CA -21.8285 -0.697774 50.8445
CA 6.13749 -32.2036 18.7736
CA -10.2278 -15.7279 64.5077
CA 9.55044 -38.9154 44.6098
CA -10.4228 -31.0227 63.0381
CA -3.50824 -30.3889 55.0901
CA -3.32449 -13.3206 75.0764
CA 13.8539 -13.9834 45.8788
CA -4.04896 -27.9758 9.99723
CA -17.3449 -17.2572 63.858
CA -13.5017 -13.3922 36.8439
CA 12.7786 -17.9074 89.0524
CA -3.87566 -27.8225 15.4048
CA 15.7243 -11.6754 82.845
CA -33.9856 -16.5166 41.8708
CA -20.7171 -16.8565 55.1656
CA -11.295 -18.061 43.9455
CA 5.17572 -31.0223 56.1456
CA 19.2156 -14.2305 41.1379
CA -39.8009 -17.7046 48.5981
CA -37.877 -20.7458 63.6839
CA -16.4782 -5.90184 40.1297
CA -36.7164 -20.9486 50.0033
CA -24.2782 -20.0823 67.9174
CA 9.32614 -21.5265 60.8967
CA 12.3719 -9.64323 45.9281
CA -6.6953 -4.5807 54.9638
CA -34.2412 -18.6026 43.945
CA -17.296 0.687447 60.0837
CA -12.1073 -26.4256 38.4645
CA 15.9694 -28.6659 45.0247
CA -21.1944 -30.8069 75.2566
CA -31.7649 -25.3703 50.9685
CA -11.3381 -22.4218 50.2611
CA -12.5712 -4.79547 69.1852
CA -5.49089 -12.8223 77.5486
CA -17.1916 -23.0954 73.2605
CA -4.58685 -12.6061 45.1283
CA -3.33321 -3.03204 57.2136
CA 3.36674 -33.4012 52.3912
CA 16.0252 -9.75555 39.0258
CA 3.9241 -34.3229 37.9803
CA -28.4802 -36.6798 64.412
CA -24.1921 -21.4455 71.9356
CA -23.196 -13.3662 56.4836
CA 9.86866 -23.911 58.5695
CA -7.46899 0.423483 59.8942
CA -9.84313 -21.7864 57.6459
CA -6.04615 -16.9929 21.6246
CA -28.7828 -21.0697 79.5527
CA -25.9565 -1.5916 56.5211
CA -23.8025 -21.9756 66.1916
CA -0.838876 -14.9114 66.6935
CA -0.339034 -12.9894 83.5902
CA 7.36667 -33.379 46.0718
CA -18.163 -21.7615 53.1399
CA -30.7294 -18.6001 41.9456
CA -25.6073 -11.698 58.4574
CA 1.24828 -11.878 79.3229
CA -6.50605 -22.3739 58.3968
CA -8.22929 -12.8722 72.9015
CA 5.7262 -36.3231 40.1258
CA -12.4685 -12.8116 62.1199
CA 22.1653 4.47489 54.152
CA -11.4572 -19.5013 74.9145
CA 7.28506 -22.128 57.0151
CA 5.2031 -22.4354 28.105
CA -13.9032 -11.3567 61.3633
CA 3.49582 2.10544 65.9461
CA 10.0903 -46.8365 51.3746
CA -17.1515 -24.6627 39.4233
CA -42.03 -21.3907 62.9183
CA -17.0082 -26.883 40.5518
CA 14.161 -40.1972 49.4071
CA -5.3607 -16.0961 48.3619
CA -8.28145 -19.4545 60.9002
CA -14.9299 -10.1517 33.2681
CA -18.1946 -28.0358 34.7226
CA 1.73024 -30.4016 53.8582
CA -0.653538 -14.8772 63.7966
CA -18.9325 -19.2181 50.9578
CA -34.7567 -15.7813 55.2982
CA 0.031287 -20.5679 14.5356
CA 2.5175 -28.8197 14.5246
CA 11.3574 -15.1475 86.4023
CA -12.9526 -26.4041 66.3191
CA 1.84966 -19.2482 60.7231
CA -12.8569 -18.34 56.7006
CA 6.38454 -30.1897 15.0626
CA -5.58291 -32.3109 77.5262
CA -9.7654 -35.7238 71.7696
CA -8.49882 -5.59022 65.0363
CA -9.47855 -21.2127 52.8434
CA -23.6482 3.00381 55.0616
CA 5.31754 -4.54474 50.2579
CA 13.1685 5.49774 45.627
CA -21.8775 -13.4468 62.7774
CA -15.2347 -19.3063 56.8839
CA -16.6208 -10.1218 51.2215
CA -19.4754 -31.8225 64.9029
CA -31.5919 -14.6403 51.0099
CA -7.17337 -35.2742 79.3471
CA -35.844 -11.3583 71.4684
CA 9.81344 -4.2384 55.4089
CA 10.7043 -15.4896 42.6873
CA 14.9609 -33.2201 43.7587
CA -26.4121 -12.5484 62.4597
CA 10.3333 -39.2816 49.343
CA -6.992 -40.187 72.1028
CA -5.56305 -4.31256 40.686
CA -32.2109 -12.66 59.954
CA -6.85982 -31.6953 53.7972
CA -9.97746 -5.18923 63.1254
CA 4.40136 -17.5938 24.7301
CA -37.5729 -13.5319 63.294
CA -11.2741 -30.6656 70.8907
CA -4.72041 -16.959 42.3597
CA -13.5801 -2.62367 62.664
CA -15.8216 -12.4683 28.532
CA 7.3699 -20.2417 58.4487
CA -8.9956 -0.109055 46.1006
CA -10.3719 3.40499 58.1309
CA 15.007 -2.66806 59.4047
CA -7.64647 -3.11584 54.0744
CA -0.625685 -14.5208 73.6848
CA 5.9235 -23.8985 24.3782
CA -16.6727 -24.6316 41.6842
CA 7.06639 -5.23172 72.9886
CA -14.8041 -9.75641 46.3362
CA 3.24158 5.01392 59.4605
CA -13.4368 -33.7342 76.7414
CA -10.9926 -15.226 41.1977
CA 1.2652 -17.7473 58.6087
CA -23.0641 -26.7723 77.1197
CA -22.3239 -29.2341 68.5584
CA -38.2515 -21.2531 60.5252
CA -14.2685 4.09798 54.8429
CA -14.5345 -16.5346 39.4561
CA 18.2196 -14.8615 43.6775
CA -9.5018 -10.772 70.0959
CA -4.33527 -15.9989 50.5985
CA -17.2217 -23.5363 57.791
CA -36.4815 -25.7767 49.9506
CA -16.7016 -23.432 62.6257
CA -30.0639 -20.901 62.3482
CA -16.2686 0.416508 70.7687
CA -12.54 -8.11231 37.7354
CA -17.353 -18.2473 67.0284
CA 2.22564 -22.027 22.2531
CA -13.1424 -27.5991 41.8084
CA -11.4377 -18.2102 65.2862
CA -23.9337 -15.2784 54.7638
CA -39.3758 -16.4156 65.2097
CA -1.75353 -13.2206 63.751
CA 8.0211 -32.0703 43.9966
CA 4.11877 -16.3736 26.337
CA 6.66327 -35.7697 53.7966
CA 15.6802 -3.52976 56.1358
CA -18.3808 -12.8663 25.4203
CA -15.8513 -27.6676 36.6181
CA -4.5932 -19.9742 71.0527
CA -13.0229 -9.30826 59.4114
CA -13.8896 0.384847 56.6237
CA -0.964095 -40.7697 77.3272
CA -16.5235 -25.4831 57.3709
CA -14.6816 -23.0202 61.7227
CA -6.16664 -11.9549 75.3147
CA -0.336304 -4.03397 46.2068
CA -16.3333 -11.6446 55.933
CA -0.329433 -11.802 54.1631
CA 0.476999 -34.3944 46.7724
CA -26.3714 -20.8524 77.7555
CA -27.1412 -9.62458 61.4591
CA -0.811986 -22.5561 62.5155
CA -28.136 -14.5166 62.1914
CA -34.3206 -26.9073 44.5431
CA -16.2589 -33.8499 57.9378
CA 4.78321 5.32562 68.2731
CA -12.8001 -16.9216 62.0994
CA -22.4703 -28.0552 75.0013
CA -18.0709 -28.962 71.7861
CA -2.50712 -34.3216 59.2118
CA 3.37557 -35.8523 35.4367
CA -1.07739 -15.3423 79.5309
CA -13.9636 -34.8449 61.1289
CA 1.85662 -19.1539 42.3815
CA -10.0787 -21.3233 79.1385
CA 8.65076 -12.7724 36.9356
CA 16.1282 -8.55513 46.3452
CA -18.5848 -16.9772 65.2863
CA 18.019 -3.61921 55.4389
CA 7.80903 -27.0142 28.9119
CA -7.1922 -20.8008 59.0189
CA 14.7978 -8.12901 44.9346
CA -1.78929 -30.6131 67.0274
CA -13.9643 2.09409 69.1906
CA 9.57921 -17.4363 37.9925
CA 18.8414 -8.48816 82.8575
CA 16.8638 -11.3125 80.1455
CA 14.4692 -9.31861 79.3897
CA -14.8074 -21.2433 63.0239
CA 8.25135 -17.9181 42.0171
CA 12.1063 -4.08739 44.0669
CA -39.0286 -15.0501 56.2546
CA -4.64102 -20.4681 64.2215
CA -10.179 -16.1635 61.4879
CA -35.8321 -24.6851 54.0669
CA 0.424476 -36.1854 38.5168
CA 2.34828 -20.84 26.9397
CA -15.9352 -30.6347 43.7613
CA -32.5343 -18.5458 41.575
CA 0.382799 -31.3746 18.9354
CA -6.15021 -11.9619 43.3826
CA -20.5443 -6.69886 41.305
CA -4.3275 -39.0839 72.2762
CA -34.6584 -13.2634 70.3762
CA -7.1893 7.86469 57.4374
CA 23.6024 -10.9023 49.0133
CA 10.7585 -0.812795 46.6362
CA 20.7472 -0.192972 54.587
CA -4.0159 -3.24257 54.8225
CA -2.33396 -12.1059 45.3269
CA -1.03388 -21.8461 18.5437
CA 15.7333 -24.7462 42.596
CA -20.5866 -12.2276 55.1515
CA -26.0824 -7.06866 50.9357
CA -9.04032 -19.3128 62.9874
CA 1.23606 -4.1027 56.5789
CA -16.983 2.68381 53.7919
CA 8.91503 -7.32384 65.9202
CA -15.3264 -1.95141 34.3609
CA -19.4614 -15.1055 54.959
CA 8.66341 -36.0519 49.6575
CA -20.6769 -18.1405 73.1282
CA -16.7893 -21.3741 55.6362
CA 4.07861 -8.09694 49.9055
CA 2.91413 -22.8784 39.7008
CA 4.22615 -6.14005 71.9818
CA -0.61149 -18.9967 67.1031
CA -4.08131 13.0182 61.7975
CA 14.3014 -20.1819 43.2843
CA -10.2345 -10.0481 64.4687
CA -24.5642 -14.5309 56.8921
CA -10.0702 -7.85674 74.1307
CA -11.9694 -16.7915 55.0842
CA -23.8219 6.58757 58.9026
CA 5.39048 4.67849 65.3409
CA -12.0233 -1.30526 71.3433
CA 13.73 -12.38 38.1984
CA -2.77819 -29.5073 15.9071
CA -20.6881 -14.0943 53.4274
CA 6.13565 -32.2852 45.2046
CA -21.9561 -2.44096 52.9689
CA -15.472 -6.41071 43.6257
CA 7.77959 -3.43573 50.9717
CA -13.3891 -18.3074 32.3574
CA -35.1289 -12.5009 60.4765
CA 13.368 3.11085 49.2476
CA 15.8457 -8.45894 55.6342
CA -24.9854 -9.72054 61.3974
CA 1.74188 -21.3474 58.9724
CA 3.93341 -26.1241 12.958
CA -27.8565 -32.8484 64.0265
CA 9.18189 -4.50076 57.1318
CA -4.56708 -12.97 47.2655
CA -22.7209 -17.9458 55.0827
CA -22.7905 -20.4707 78.8415
CA -20.228 -16.9101 62.0723
CA -9.1644 -21.7882 48.4371
CA 12.4178 -19.0269 37.2131
CA -11.5886 -6.58059 44.6123
CA 5.18336 -29.4374 42.5298
CA 6.06982 -2.67768 45.7169
CA -10.9861 -8.56194 56.3805
CA 1.68709 -3.2019 53.7002
CA -19.3377 -3.1276 48.9522
CA -19.3505 -28.6328 35.9758
CA -6.48433 -3.35413 62.0216
CA -8.24627 -19.5143 50.3366
CA 16.7545 -30.6629 45.3051
CA -5.75946 -14.7229 67.7248
CA 6.68606 -41.1865 39.022
CA -2.24681 0.797085 53.7687
CA 13.2489 -14.5874 83.4446
CA 17.6352 -3.59455 46.5403
CA -18.5719 -9.48773 39.632
CA -19.041 -2.35467 56.6531
CA 3.42873 -37.5736 38.402
CA -18.3362 -32.5469 77.755
CA 3.50299 -6.08835 50.6823
CA 3.57341 -32.6261 34.4998
CA -25.2559 -27.7339 62.7089
