489

CA 1.42274 -5.41562 60.6506
CA 17.1243 -22.6853 52.3939
CA -11.3267 16.3736 30.6437
CA -10.4141 -14.1759 87.4019
CA 9.59814 -19.8025 51.9849
CA 21.8918 -0.610609 64.2418
CA 9.51628 -12.8701 82.5225
CA 2.0127 -26.2435 49.2585
CA -4.86215 25.2721 70.016
CA -20.9508 -13.8697 62.1997
CA -19.4344 -4.90226 58.4155
CA -27.2625 -10.7777 38.5653
CA -17.6103 3.18458 56.779
CA 1.04259 20.3947 46.0183
CA -15.5137 -7.9163 62.209
CA -7.01884 -16.8907 76.6994
CA 23.8006 3.41879 53.3807
CA 13.3379 -34.2375 51.6538
CA 5.19311 1.3474 17.9947
CA 2.82411 24.4686 48.178
CA -26.1403 -9.23109 38.3911
CA -0.310498 -29.5212 55.033
CA -25.5402 -4.14482 64.2182
CA -0.690951 -1.92037 32.7109
CA 25.7166 -11.3999 38.93
CA -34.6975 0.358519 62.3662
CA 29.5982 -8.11509 36.5038
CA -1.63981 -25.0474 50.6378
CA 9.28463 -13.8523 80.8314
CA 16.6976 -14.3368 67.0953
CA 3.47605 26.9936 53.8704
CA 19.6379 -3.76813 65.9216
CA -33.9682 -19.7199 51.2112
CA -7.23742 29.7343 61.5748
CA 21.055 -6.54152 68.241
CA -7.38945 -18.8905 48.7866
CA 8.19023 -15.2509 75.4893
CA 2.33593 -3.21774 60.1701
CA 5.27188 -14.1542 63.2733
CA -9.34256 -19.6587 29.332
CA -3.80362 -18.7505 51.4392
CA 11.8221 -12.2297 68.0917
CA -15.1928 3.12242 56.7642
CA 8.38501 -17.1918 50.7651
CA -3.78754 -35.112 52.4247
CA 19.7498 -8.38928 77.0923
CA -25.687 -10.0547 40.137
CA -4.09184 -36.0469 78.5726
CA 15.8833 -31.0935 53.4524
CA -7.3515 8.43337 72.6636
CA 13.1235 -5.33214 58.5581
CA -19.434 -10.0332 63.175
CA 11.5145 -10.7974 74.8541
CA 6.97367 -1.33222 63.9426
CA -5.78713 -22.2832 19.2781
CA 8.66698 -8.97288 82.9134
CA -11.8932 -20.986 61.1473
CA -13.7968 18.4691 31.1347
CA -24.0714 16.2488 39.4556
CA 15.3047 -3.30039 49.4017
CA -22.773 17.1701 43.8193
CA 9.93503 -2.97344 51.8246
CA 4.24557 -0.607764 72.268
CA -8.27077 -14.4287 83.6344
CA 3.57675 0.271833 53.691
CA -16.6947 15.5645 42.1021
CA 32.9855 16.9909 50.8756
CA -15.5941 0.757133 52.4513
CA -1.10331 -22.0584 73.4714
CA -8.67024 2.41287 34.1211
CA -25.5588 -1.45025 39.0618
CA -23.3583 -4.05115 61.1577
CA -7.90577 -5.83558 72.7877
CA -19.071 0.395854 49.9856
CA -19.7428 -6.20374 41.8238
CA -21.6517 8.21313 42.3805
CA 1.8387 -27.4803 56.2888
CA 16.6416 -21.0219 67.1002
CA -1.72478 -27.3051 69.2149
CA 5.26183 1.85281 71.7627
CA 15.0167 -6.77225 65.281
CA 19.9021 -6.9643 79.8693
CA -24.887 0.375317 58.252
CA 10.7756 -2.98354 47.5337
CA -3.80284 -7.81796 54.4626
CA 20.7996 -16.1776 66.2099
CA 23.2649 35.2577 39.023
CA -12.9784 -11.3191 61.0142
CA -30.3893 -0.864552 61.11
CA -28.2727 -4.08577 62.578
CA -14.0425 27.8241 21.8421
CA 15.6757 -7.43004 82.1436
CA -7.53563 4.44041 72.0843
CA 18.8394 33.4133 34.4256
CA -29.2455 -2.67029 63.1167
CA 5.4093 -37.2518 55.868
CA -9.51427 -27.532 58.8893
CA 11.4881 2.63825 64.5899
CA -28.057 15.3884 42.133
CA -2.78489 25.4202 48.9845
CA 4.68621 -32.5514 54.6577
CA 25.3942 19.6685 61.8855
CA -5.18834 -28.8359 41.8627
CA -17.9094 -10.9601 46.9219
CA 6.89829 -0.0969074 73.0453
CA 13.1086 13.7942 63.7608
CA 14.9497 -18.3398 35.6205
CA -11.6531 -14.5393 81.4784
CA 18.4269 -5.82287 53.8653
CA -0.297749 22.3301 71.7405
CA -15.6362 -8.41096 59.8084
CA 1.57219 37.8916 63.6907
CA -23.9147 -8.51255 41.3244
CA 8.67073 -0.244851 76.0881
CA -27.9675 12.6384 45.0835
CA 20.2517 3.68868 54.1175
CA 8.36466 -11.3781 65.4388
CA -21.2723 -7.95855 60.8501
CA -2.20991 17.1747 86.5571
CA -4.38723 14.0967 51.2007
CA -32.2378 8.41715 38.527
CA 1.32401 -26.2707 68.3666
CA -2.66322 16.699 46.9672
CA 2.51106 -2.41358 71.4861
CA 8.85766 -10.2912 68.072
CA -33.3946 -1.34857 59.3012
CA 13.9936 -5.10493 53.3114
CA 15.3993 -20.6325 52.8061
CA -27.8188 12.8323 47.1335
CA -18.0121 -20.366 37.3736
CA 3.47445 20.3454 52.3986
CA 0.907921 3.16976 21.1305
CA -6.97367 18.201 51.2959
CA -6.4803 -2.57887 56.4323
CA 16.563 -17.4074 51.0176
CA -1.91361 -28.0566 48.7195
CA -1.94203 -8.18784 56.2981
CA -9.61056 -24.0335 17.8137
CA -0.805317 25.6337 70.296
CA -6.32568 -15.0157 18.429
CA 14.497 -5.73981 69.293
CA -20.9987 1.57653 38.795
CA -2.11167 24.0576 71.214
CA 21.6681 -7.68376 79.9463
CA -6.79481 -12.8559 16.141
CA 7.07722 1.99938 71.0973
CA 23.6984 -5.59038 69.9848
CA 19.8008 33.9312 39.68
CA 10.7439 -16.5471 37.4661
CA -10.4251 -15.1723 79.2959
CA -12.0472 -15.5196 63.0574
CA -22.434 2.63222 47.2531
CA 10.5853 9.72154 55.2046
CA -25.938 16.0716 46.8526
CA -22.303 11.0117 44.6715
CA 11.7991 -30.3396 54.8754
CA 21.4161 -14.6917 56.8243
CA -0.131988 -13.9292 44.89
CA 2.27952 -26.2155 52.0347
CA -35.4462 -0.911216 58.0806
CA -5.47361 20.774 54.6849
CA 33.2957 16.6547 48.5188
CA 6.7459 -12.6741 75.4578
CA -13.0859 26.2016 26.2155
CA -19.5433 16.152 41.9475
CA -11.2565 -5.48147 77.6059
CA -25.2918 13.0349 43.1086
CA -14.6059 -15.1875 54.1568
CA -20.0471 9.22452 41.5548
CA -22.6923 -2.11541 59.2135
CA 3.4913 -22.4968 81.6548
CA -4.09284 -19.4616 65.3783
CA 16.3602 8.49508 58.7344
CA -16.9006 -6.86097 61.3478
CA 2.54701 -7.66276 48.2192
CA -13.1357 0.369308 54.8399
CA 18.9911 -15.5687 74.4112
CA 20.2575 -6.43796 75.9482
CA 20.5128 -11.8512 60.7926
CA 13.3737 -7.76454 58.3556
CA -34.4722 -4.39737 61.3217
CA 11.9026 -21.1334 38.0707
CA -24.9734 13.8767 44.9072
CA -22.3309 16.3579 45.5986
CA -17.4089 -16.3588 33.3561
CA -22.8898 12.0377 46.1967
CA -29.5175 2.30517 38.5065
CA 9.86962 7.32793 53.2229
CA 24.7189 19.0806 50.1859
CA 19.7984 -1.79454 53.3407
CA -16.2909 -4.41372 41.9927
CA 4.33466 -6.68621 49.985
CA -1.93786 -2.35727 75.8292
CA 11.8943 9.88761 58.9867
CA -26.5557 2.72762 36.7036
CA -5.95256 28.1136 65.7024
CA 9.6983 19.1149 62.7238
CA 13.001 -13.4432 70.1167
CA 11.0584 30.4466 42.1403
CA -3.20839 -41.6794 50.4656
CA 14.0678 -21.1649 41.5297
CA -11.0838 -15.9391 82.457
CA 9.62124 -11.6488 78.9396
CA -5.50179 26.1932 46.3786
CA -9.71763 32.78 60.0061
CA -30.3008 8.25842 70.1394
CA -25.1632 -0.157365 60.6515
CA -27.7963 -2.44365 67.7383
CA -9.51095 -15.4015 85.2332
CA 8.10604 -0.0287705 79.605
CA 13.0767 13.3317 59.7359
CA 13.6362 -24.6506 44.0038
CA 8.50205 -8.46376 70.7612
CA 4.00701 -16.8014 75.9818
CA 10.3574 -0.958654 52.9026
CA 17.9841 -5.91845 68.4142
CA -9.032 -15.8389 66.8744
CA 8.63311 14.1329 62.1055
CA 26.5485 24.2995 52.7683
CA -15.5133 -17.3328 61.5487
CA -5.42436 -4.00283 53.7078
CA 14.97 -16.5153 65.5386
CA 26.3451 18.1282 59.0523
CA -12.4996 -23.5178 60.9645
CA -2.33181 -10.0625 60.0851
CA 15.3056 -37.1624 52.8295
CA -1.10968 -38.0844 47.6421
CA 12.4565 -28.4581 53.6009
CA 9.26999 -32.5022 51.9093
CA 0.667791 -26.0616 74.2616
CA -1.66498 32.1649 45.7736
CA -12.7649 3.19376 36.3052
CA -18.6692 -18.1547 30.7577
CA 0.98018 22.4711 46.7242
CA -19.1693 -4.09181 50.2572
CA 5.07779 -12.2017 76.7851
CA 11.7014 -33.4321 51.5892
CA 9.01959 -3.04498 84.4178
CA -1.6828 -11.4962 52.1046
CA -1.17598 -15.9868 44.9811
CA 20.141 31.7709 40.7666
CA -1.36084 28.3158 67.5201
CA -10.9837 5.38458 34.3849
CA -27.8701 -6.76948 38.4112
CA 2.95762 -4.59014 85.6539
CA 17.6945 -35.4434 53.3894
CA 19.0662 -33.6956 47.53
CA -5.80113 17.6338 47.4695
CA -6.54615 -31.3215 44.0734
CA -26.2366 -11.9438 36.9945
CA 7.25428 2.17906 64.5443
CA 17.4906 -4.83407 80.042
CA 32.4202 19.5064 49.1508
CA -7.16449 -5.69589 34.9299
CA 5.63034 -7.6827 66.5044
CA -13.8496 -13.4238 59.2371
CA -12.2523 -31.0856 56.7656
CA 25.3261 -8.50541 80.818
CA -10.2322 -18.9365 70.2842
CA -9.15698 -9.12083 11.099
CA -16.7711 -8.92598 26.9063
CA -26.5725 10.5847 45.8027
CA -16.7345 18.2135 32.9882
CA 6.2806 26.8723 38.6812
CA -0.357006 30.1507 47.7074
CA -13.6901 -14.5058 56.545
CA -11.086 -29.7064 61.1418
CA 21.9742 -16.787 62.3753
CA -2.37617 -31.5368 51.2769
CA -24.6989 15.6606 44.8661
CA 12.6921 -4.84563 84.8471
CA 7.21216 2.2956 22.1812
CA 14.5006 -22.0434 55.3069
CA -9.79706 28.3519 24.3067
CA 7.4838 -13.5279 80.4643
CA 7.26494 -9.01315 66.6228
CA 8.12856 -7.69013 76.5253
CA 20.2657 -13.1477 76.3889
CA 26.8665 -10.2024 35.0506
CA 9.26544 9.53919 56.9983
CA 7.61176 -34.8546 53.0326
CA 4.26381 -15.4644 77.7564
CA 19.3575 35.4577 35.4875
CA -21.4262 -0.0915982 52.1242
CA 19.1712 -9.71684 81.8428
CA -1.31517 33.038 60.4024
CA -21.9885 -2.45463 64.1349
CA 16.5435 -3.28648 62.4797
CA -2.8962 -9.6594 57.334
CA -4.23709 -31.3431 51.4021
CA 20.7473 33.5698 37.2593
CA 21.6206 -4.91873 76.9265
CA -1.56555 -30.4909 76.3916
CA -20.7498 3.36714 40.9407
CA 10.567 -11.0437 73.1575
CA -22.0457 12.2792 35.32
CA 12.3631 -7.09667 71.1136
CA 6.55428 -0.361534 25.2824
CA 17.9821 -1.16907 72.2478
CA 7.60446 -9.94433 81.3214
CA 0.855755 -12.9195 81.0707
CA -5.52307 -20.8135 71.8581
CA -18.0051 -17.6012 34.9241
CA -29.4705 4.66945 36.987
CA -5.0178 16.7845 51.2436
CA 1.71257 -16.7034 46.4933
CA 21.5297 -16.5668 51.663
CA -1.31743 -8.08141 60.1603
CA 15.3689 -3.8276 69.9815
CA -4.35812 -13.7875 51.671
CA 24.7462 24.2617 55.3697
CA 19.4215 -22.746 69.0943
CA -28.5821 12.1234 42.1139
CA 2.02031 -13.6058 78.7766
CA 7.03933 -3.92878 60.415
CA 14.2897 3.15937 56.1773
CA -5.96651 -8.11467 30.0772
CA 4.88506 0.981869 87.0037
CA 17.7625 -7.24651 77.4474
CA 2.15064 -16.1957 79.7256
CA 13.1679 -16.0326 67.99
CA 17.4442 -34.6042 51.2207
CA -5.54106 -29.368 46.2885
CA -3.80099 -16.514 80.2373
CA 27.6117 23.0453 51.656
CA 14.8692 -0.434111 59.6378
CA -1.92894 15.7931 50.5219
CA -8.49527 -23.1838 69.3954
CA 9.37863 -11.4545 69.6807
CA 5.96517 -0.595666 71.0434
CA 17.1904 -8.88769 68.1709
CA 16.6943 -4.20691 67.7428
CA 25.2203 23.9823 51.5894
CA -21.7434 10.0484 39.7816
CA -26.3051 -2.73815 60.9564
CA -14.1665 -16.7688 66.9013
CA 15.591 -22.8655 66.7535
CA -4.60173 -19.4559 74.8501
CA 9.07252 -9.85388 78.2316
CA 24.4912 -7.92751 73.455
CA 8.27828 -4.00626 49.641
CA -16.6829 -9.21777 43.9852
CA -10.6569 -18.1294 68.1978
CA -2.59639 20.6932 72.9083
CA 7.39529 -1.65298 51.0147
CA 7.45792 10.1531 57.0454
CA 2.47754 -1.54045 84.0878
CA -9.76965 -33.9896 59.168
CA 21.9535 -14.6002 66.7248
CA -10.7238 -12.8947 83.6063
CA -24.3758 11.1592 37.0079
CA 10.4076 -0.813882 48.7099
CA -24.447 7.12523 48.2648
CA 18.4514 34.0013 37.7714
CA -9.30688 -17.6775 65.3705
CA -9.51499 -18.7341 80.2497
CA 28.2111 17.4024 61.4522
CA 2.69914 -12.9099 73.5021
CA 15.4002 -31.228 51.6867
CA -3.10189 26.3024 72.1085
CA -17.1538 -26.8803 59.7727
CA -4.83933 -29.2506 17.0038
CA -15.8877 17.954 44.8107
CA 7.77007 -4.19664 57.1903
CA -5.33263 -33.7893 80.1427
CA -23.7877 9.51571 37.5735
CA -22.4178 -10.7768 57.3033
CA 26.8124 -7.47621 69.6844
CA 21.4094 32.401 34.9134
CA -12.954 9.16778 37.0969
CA -20.5777 15.2082 40.567
CA 13.4316 -23.079 52.5825
CA 0.854814 32.0921 60.4328
CA -5.97379 -20.3996 68.9087
CA -7.04778 -14.9014 81.4856
CA -22.1992 2.80821 45.087
CA -7.87361 34.5033 61.074
CA -22.9643 -8.02777 38.8287
CA 20.3986 -5.11055 63.556
CA 29.6749 21.2736 47.2628
CA 5.01765 -8.00498 60.9288
CA -19.1448 12.6339 32.8818
CA -20.4381 -0.392424 28.4743
CA -12.8653 -12.2729 65.5395
CA -2.66767 34.4901 64.1131
CA 3.45483 -19.945 76.8763
CA 17.6863 -6.03061 65.6354
CA -26.2945 -6.15871 37.1143
CA -10.2387 8.16349 31.2798
CA -8.02225 -16.7405 72.55
CA -31.0522 -1.95485 65.5082
CA 18.6215 30.4298 31.2818
CA -8.12762 -15.084 49.2948
CA -2.84599 -12.8275 83.4019
CA 22.3016 -10.5907 67.7549
CA -25.4216 7.23856 42.8435
CA -3.88471 -28.3979 45.7972
CA 1.84984 -29.3647 53.0395
CA 31.9425 14.1957 53.5819
CA -16.6616 -12.1323 48.0156
CA -3.70246 26.6017 45.8765
CA -15.1357 17.0529 33.7383
CA 5.27114 4.52238 29.0093
CA 13.0831 -2.12715 48.5874
CA 20.5362 6.051 59.1834
CA 21.0648 -17.9365 77.1427
CA -25.4677 1.95082 48.6174
CA -9.97745 -12.3946 9.51427
CA 16.4447 -21.4866 54.2962
CA 18.8798 -18.7081 50.8337
CA -22.8232 10.2758 33.2922
CA -26.8379 -2.87945 63.5131
CA 2.79605 -4.04281 69.7324
CA -14.9274 -17.8988 58.8553
CA 11.2841 -8.26511 59.1845
CA 0.153009 -10.1914 50.2241
CA -22.1433 3.11971 52.1839
CA 2.25281 18.8485 49.6406
CA -7.63151 -18.5823 68.6862
CA 4.64566 -7.68712 79.5079
CA 5.09775 -14.0787 82.8453
CA 13.1624 30.7731 44.5965
CA 32.0525 23.7915 46.5335
CA 3.28905 2.18291 90.4614
CA -17.9435 -1.41348 52.4301
CA 29.0649 -11.1073 79.2271
CA -7.85356 28.658 68.3689
CA -21.2053 13.9187 43.7236
CA -17.2686 24.3417 25.9133
CA 15.0276 -30.504 55.3366
CA -21.0581 4.75477 38.8556
CA 19.2701 -11.764 64.9322
CA 14.1673 -17.598 74.9244
CA 10.9137 -21.7615 53.4486
CA -19.7423 -12.0558 63.8315
CA 19.9257 1.62806 53.5644
CA 10.9812 -12.6855 81.4393
CA -0.383896 -3.24087 67.8481
CA 11.7666 -8.83606 57.1552
CA 10.9969 -3.11814 87.9468
CA 3.16878 25.3379 52.5235
CA 28.575 17.1652 48.5088
CA 10.5612 -15.9267 79.1712
CA -12.0715 -18.3675 70.4416
CA -12.119 -11.9581 63.7345
CA -6.18629 26.243 68.2019
CA -2.51626 -30.5128 47.1799
CA 19.9609 -29.4815 51.152
CA 13.4101 -22.8857 42.3637
CA -21.7622 2.17953 54.9288
CA -2.09455 34.6389 61.7079
CA 23.4527 -10.4997 75.9741
CA -11.9925 -14.7074 88.9911
CA 5.73684 3.76052 24.1912
CA 30.1801 -10.7329 39.5839
CA -16.2508 -8.31375 51.9725
CA 9.65361 -9.46748 75.5448
CA 0.128546 -9.64223 56.3479
CA 6.2381 -10.0611 68.1288
CA -29.7732 23.968 51.6441
CA 19.3278 -31.0907 57.3774
CA -20.3359 -6.14267 56.5276
CA 12.9176 -4.67769 70.981
CA -8.11837 -34.7263 80.8972
CA -21.1459 -4.24859 53.5126
CA -12.2041 -11.6649 85.343
CA -20.9495 -28.509 62.4712
CA -0.443328 14.1073 87.2159
CA -23.3299 19.2395 48.6917
CA -9.50275 -21.7124 77.2298
CA 2.95976 -11.3878 83.075
CA 0.0330912 -1.95059 71.2052
CA -13.8707 -8.92445 26.6031
CA -11.4584 -11.8663 80.9458
CA -6.15913 -18.0914 66.6385
CA 31.4138 16.4409 48.557
CA 2.2137 1.54844 70.1305
CA -22.0402 11.8252 39.5665
CA -11.599 -14.4412 76.2829
CA -7.75628 -21.9338 18.2195
CA -18.2198 -4.15928 54.1415
CA 36.4355 15.158 47.8384
CA 27.8764 23.1014 56.4244
CA 9.87227 -4.74871 51.1609
CA 5.67951 24.0105 40.4381
CA 11.6631 -35.7002 38.4172
CA 18.1876 29.0417 33.9841
CA 15.0335 -3.94841 65.135
CA -8.39511 -22.7259 80.8542
