489

CA 11.291 -3.52484 64.9231
CA -2.65871 -29.1154 53.1746
CA -21.2958 -10.3969 50.9708
CA -4.56612 0.731776 46.4327
CA -8.30764 -7.78422 41.6532
CA 13.7709 -3.47035 49.8354
CA -4.54244 -18.9812 32.3463
CA 13.7991 -22.8071 41.5733
CA -17.0061 -3.36609 58.6759
CA -16.3089 -25.6571 35.6393
CA -12.0746 -22.0526 41.1631
CA -5.77712 -8.29498 67.6324
CA -13.4809 -32.6471 26.0761
CA -15.2525 -28.3264 75.3487
CA 11.1791 -20.0666 39.5426
CA -1.12215 -9.29031 59.6471
CA -0.445156 -31.8897 42.3248
CA 10.0736 -18.0899 41.7355
CA 20.2011 -14.9744 45.5047
CA -11.5654 -23.0894 27.4525
CA -10.4447 -18.6252 20.9392
CA -11.2662 -8.87891 24.6939
CA -4.19379 -3.38171 50.0601
CA 23.1722 -9.32212 47.5761
CA 2.25028 -15.0034 82.2376
CA -32.3647 -20.9638 68.3421
CA -39.2958 -19.0319 61.2134
CA -19.6592 -12.3715 67.1958
CA -18.7809 4.544 58.9037
CA -6.08972 -18.8445 16.9223
CA -1.54436 -21.1339 75.5821
CA -17.1299 -33.861 72.4705
CA 3.43543 -24.9472 34.9448
CA -5.23072 -34.7839 52.4979
CA -25.5385 -13.3642 76.3061
CA -3.1659 -7.25872 89.8294
CA -35.1605 -22.5522 52.0321
CA -26.214 -15.9577 76.9483
CA -14.4107 -1.8267 56.7747
CA 0.31353 -11.4263 72.8491
CA 6.59935 -26.7385 16.7019
CA -8.30021 -17.474 26.7498
CA 1.57499 -21.6603 34.3852
CA -33.756 -28.046 48.7585
CA 9.28663 -14.9171 30.7409
CA -11.1772 -24.7933 61.8136
CA -19.9398 -9.06957 50.1446
CA -2.48221 -10.7326 91.3654
CA -5.22444 -20.9587 25.5977
CA -37.079 -16.9897 51.5795
CA 11.1721 -32.8645 56.4173
CA -9.61996 -24.4855 64.0739
CA 11.3206 -4.98543 62.7345
CA 6.89994 -23.3319 66.4769
CA -8.68028 -24.6395 55.945
CA -13.8059 -19.6046 67.3747
CA -11.1912 13.6031 57.6082
CA 6.58158 -0.764083 71.4372
CA -26.4536 -12.7312 54.3167
CA -34.033 -14.8251 46.4263
CA 10.6278 -12.8639 31.0737
CA 7.54805 -17.1395 36.3125
CA 2.03029 -20.5342 38.7292
CA 0.298627 -15.715 28.0035
CA -23.8641 -5.96277 53.5206
CA -12.453 -13.0939 27.6203
CA -25.5293 -12.1959 60.2658
CA -14.6568 -0.617886 48.4849
CA -9.61081 -7.67458 73.8444
CA -7.00843 -7.01646 61.5075
CA 24.3132 -8.93146 50.1026
CA -13.3898 -17.2914 54.9525
CA -25.677 -15.5105 46.2233
CA -3.56865 18.249 49.1002
CA 3.79037 -17.9387 57.3553
CA -11.6225 -39.0667 79.088
CA 4.25716 -12.0737 58.9791
CA 0.79497 -10.2378 24.5398
CA -6.42018 -36.7849 73.4174
CA -5.54132 -17.5897 49.1889
CA -0.865963 -29.304 68.945
CA -16.4396 -10.464 64.1614
CA -0.982116 -36.9135 77.3385
CA -1.21971 -26.5656 65.1797
CA -5.03252 -29.6372 63.2235
CA 14.968 -32.7205 52.3555
CA -2.59654 -22.6382 23.8627
CA 12.3365 -25.6546 41.7659
CA -2.43826 -12.1644 62.4301
CA -16.3253 -32.9732 64.9596
CA -12.9885 0.505111 47.6662
CA 8.89428 -16.2932 28.2514
CA -11.92 -35.9602 31.5549
CA 0.782399 -15.5899 83.3205
CA -35.0314 -25.402 43.3266
CA -10.4193 -0.499155 39.2731
CA -3.91813 -36.8314 69.3368
CA -4.62784 -11.9009 59.4969
CA -15.2684 -28.6475 64.0165
CA 12.075 -18.6108 34.5296
CA -15.1521 -2.38756 50.3785
CA 3.54848 -33.5962 75.2304
CA -33.0633 -20.1596 61.8708
CA 2.60801 -1.17371 70.1218
CA -10.7656 -13.3538 28.9926
CA -7.99269 -4.10251 69.1409
CA 4.38421 -18.1966 75.07
CA -6.00346 -27.1054 75.3128
CA -34.3014 -21.2197 66.5699
CA 2.68794 2.53443 62.9266
CA -10.5018 -8.39593 41.4375
CA -19.655 -27.0866 36.5143
CA -0.866613 -20.052 80.7335
CA -15.6794 -11.1365 53.6265
CA -14.6072 -9.80129 55.4469
CA -6.29339 -5.20922 67.0734
CA 0.77536 -20.839 75.0647
CA -13.0483 -18.5115 36.8812
CA -15.3019 -17.4541 61.9462
CA -17.7764 -29.4067 64.4092
CA 9.646 -23.4643 66.9086
CA 3.35124 -29.1626 65.0739
CA -29.3258 -14.8687 51.4862
CA -9.4998 -25.5812 62.6449
CA 5.25694 -2.40399 55.5232
CA -12.2629 -18.4278 61.6463
CA -2.88707 -19.1716 47.7972
CA 1.6642 -11.5629 90.3471
CA -5.20317 -8.84017 59.8787
CA -21.2861 -33.6741 62.0561
CA -4.70688 -19.8624 78.667
CA -1.23565 -22.3399 11.6961
CA -2.45551 -19.3393 56.4435
CA -5.55911 -7.36091 48.0794
CA 3.74893 -29.9005 15.8637
CA 1.32966 -10.3254 60.9835
CA 12.9463 -19.5551 58.4358
CA -38.3822 -27.7143 47.5096
CA -16.6444 -5.21458 51.2554
CA -14.1631 -14.6657 38.2575
CA 8.59409 -23.229 63.4828
CA -3.68242 -23.1047 33.39
CA -26.6921 -17.886 61.6279
CA -7.66783 6.75344 57.3213
CA -10.7506 -12.1735 34.233
CA -4.72544 -8.85056 74.5574
CA -16.274 -11.6666 56.3146
CA -17.0537 -30.793 31.0378
CA 19.7145 1.10581 55.3251
CA -8.05663 -10.5897 61.0782
CA 0.461189 -20.8046 27.8498
CA -28.4621 -15.0118 55.0145
CA 6.35654 -14.5048 56.1261
CA -1.7221 -4.33588 59.4928
CA -24.5262 -16.3008 79.4647
CA 9.80623 -41.462 43.888
CA -6.30888 -36.5253 77.3255
CA -16.2966 -29.544 36.4125
CA -29.1324 -17.8386 47.237
CA 9.13295 -34.3362 47.8882
CA -5.27324 -39.421 73.7376
CA 0.348895 -30.4222 63.9472
CA 4.38887 -18.3298 40.6662
CA -11.4775 -35.576 77.9576
CA -6.44356 -16.2984 56.6165
CA 2.08718 -39.2126 34.0459
CA -12.019 -2.7703 65.9905
CA -15.8774 -10.5783 40.2117
CA -12.4484 -34.3552 32.5494
CA -8.18347 -31.0362 66.537
CA -15.2595 -24.855 76.4569
CA -30.3598 -22.3231 52.851
CA -0.906008 -19.1131 30.3321
CA -40.8329 -17.172 57.8236
CA -38.7164 -15.6221 53.0265
CA -15.6474 -34.178 36.05
CA -0.464185 -13.8455 82.3757
CA -17.0038 -6.97494 41.9042
CA -25.7188 -32.8704 66.9488
CA -4.40198 -7.92608 70.1873
CA -7.15764 15.8268 54.9717
CA -39.8204 -20.9776 51.7489
CA -5.76553 -5.15596 43.4018
CA 9.27596 -33.7573 43.9936
CA -16.1726 -32.9446 29.9973
CA 5.39448 -31.9962 53.0824
CA 2.10217 1.09862 70.0592
CA 5.00399 -15.7315 54.7539
CA -17.7124 -8.71488 51.7284
CA 9.49051 -20.1691 38.4034
CA -2.81454 -13.7137 24.5173
CA 9.51908 -19.9295 41.1584
CA -14.2085 2.21511 58.9478
CA -8.79363 8.2186 50.2668
CA -17.03 -17.8722 63.3764
CA -0.878607 -34.2803 51.9751
CA -13.5749 0.23637 44.5371
CA -25.6658 -9.97175 55.6498
CA -10.9018 -15.8816 41.6499
CA -14.0045 -8.3785 43.1035
CA -17.4069 -9.21779 65.7218
CA 3.41733 -33.4432 55.7845
CA -2.23604 -37.3012 51.0442
CA -8.09674 -42.2621 76.5803
CA -1.27785 -19.3278 26.2921
CA 16.0061 3.84729 55.0761
CA -6.04708 -29.2324 76.8801
CA -13.5017 -13.3922 36.8439
CA -20.9698 -28.4417 34.4217
CA -11.6059 -21.3806 31.7992
CA -23.9129 -21.3414 80.6457
CA 2.68931 -10.9295 67.0201
CA -13.8345 -25.1576 65.8306
CA -29.4954 -13.2361 61.5363
CA -19.9625 -8.01973 64.9721
CA 10.0386 -39.6258 42.7212
CA 16.7589 -31.914 52.6497
CA -14.0841 -14.627 35.5621
CA -13.556 -19.2097 72.9205
CA -14.3224 -25.6466 37.0652
CA -1.44979 -31.5802 58.8745
CA 10.574 -15.053 26.9639
CA -7.49061 -23.6856 62.4626
CA -1.24242 -12.6019 65.0563
CA 2.97327 -36.7737 61.5448
CA -4.87844 -40.6751 71.4645
CA 17.2928 -20.0271 44.8142
CA -13.4816 -15.7988 71.0461
CA -21.1944 -30.8069 75.2566
CA -1.89832 -18.9833 63.4727
CA -12.4316 6.23886 50.642
CA 0.672089 -20.3204 62.9276
CA -20.6469 -21.8914 73.7963
CA -1.48673 -30.5566 56.3265
CA 25.0483 -14.8559 49.4092
CA -7.68466 8.10891 58.5336
CA -11.5949 -16.2987 71.7417
CA -17.5183 -21.6643 76.6581
CA -0.260248 -21.4802 15.8805
CA -6.74771 11.1797 58.2646
CA -0.457725 -12.0855 88.0913
CA -4.17677 -24.8913 78.4897
CA -21.5444 -17.559 56.6634
CA 4.50978 -26.888 10.7301
CA -29.9174 -28.8546 65.9053
CA -36.5402 -15.7392 56.4992
CA 5.53181 -31.1493 75.2157
CA -15.3691 -27.642 30.0415
CA -15.5157 -28.2453 42.3269
CA -4.16906 -36.5369 74.2222
CA -5.99295 -12.5419 71.3888
CA -13.9827 -26.919 75.7153
CA -27.6988 -29.1578 84.0318
CA 12.9234 0.153938 53.1963
CA -21.5886 -8.34918 50.5852
CA 5.66435 -23.1834 56.5231
CA 14.4036 -9.11952 60.6563
CA -23.327 -15.5858 53.7521
CA -25.2135 -14.3827 53.5351
CA 8.26411 -31.9842 51.0364
CA -7.48302 -13.394 68.6894
CA -11.5544 -27.0986 34.0729
CA 7.28506 -22.128 57.0151
CA -6.22874 -20.4778 12.8691
CA -19.5821 -9.93624 59.0557
CA 3.49582 2.10544 65.9461
CA -8.79774 -15.5 61.6457
CA -14.4295 0.420343 49.9543
CA -24.2162 -30.347 77.9121
CA -11.9906 -1.74614 52.0505
CA -30.1774 -9.38941 60.8247
CA 4.81424 -27.5789 73.9268
CA -0.0612024 -16.2178 74.1073
CA -28.1353 -23.1432 65.9615
CA 9.3238 -12.1053 32.4058
CA -3.34606 -29.1386 50.3491
CA 4.73343 -18.8673 62.0223
CA -11.223 -15.2123 57.1733
CA -17.0184 -5.39777 54.5151
CA -4.07396 -24.5059 57.8308
CA -28.2412 -28.459 68.2887
CA -14.8126 -12.8489 54.6685
CA -7.84447 11.2613 55.0314
CA -34.8314 -15.5582 64.965
CA 11.2584 -6.53005 53.4766
CA 1.14065 2.36312 48.7434
CA -6.18278 -19.1005 42.1367
CA 6.80388 -15.1571 83.9424
CA -2.22899 -21.927 52.7903
CA 4.73697 -34.5489 54.9393
CA -0.677735 -5.72271 50.4578
CA 5.25848 -7.27385 54.1556
CA -2.22109 -15.7793 43.917
CA 8.21724 -14.1228 84.3831
CA -7.62047 -25.4748 65.8759
CA -16.6208 -10.1218 51.2215
CA -11.8223 -14.6387 62.528
CA -35.6624 -28.0105 45.6382
CA 20.498 -17.7158 42.974
CA -11.5027 -17.0595 60.3282
CA 1.14669 -11.5991 82.7357
CA 2.65947 -30.6157 37.9995
CA -7.21695 -18.0758 64.5607
CA -25.6743 -20.6749 54.5131
CA -2.06646 -17.3986 42.6018
CA 6.76883 -12.5615 48.3582
CA 7.85064 -4.7374 54.4955
CA -23.0193 -22.3672 85.5325
CA -10.9226 -5.93653 71.4595
CA 16.9502 -0.649487 49.8591
CA -3.44906 -15.356 67.5181
CA -37.5729 -13.5319 63.294
CA -23.8095 -13.0177 55.1092
CA -18.1223 -8.2372 54.0105
CA 3.8212 -26.8337 12.9137
CA -3.45884 -20.9413 12.5675
CA 6.50163 -15.8131 59.7473
CA -6.28582 9.04372 56.0493
CA 7.20948 -7.37691 50.8706
CA -2.00578 -7.70303 58.0581
CA -20.4338 7.80674 54.7198
CA -30.52 -20.1435 67.7653
CA -15.546 -13.8911 66.2719
CA -6.48377 -32.9677 61.954
CA -1.34985 -27.2864 57.2519
CA -32.2813 -15.2127 70.2194
CA -4.97423 -13.6951 88.6536
CA -16.576 -6.80339 45.6724
CA -15.9486 -20.7439 66.257
CA -6.30644 -31.363 72.5633
CA -10.6344 -20.5715 24.7095
CA 11.8273 -4.10128 68.5624
CA -13.1947 -8.99402 60.8541
CA -24.7634 -28.1967 80.1132
CA -1.90358 -14.2153 88.3368
CA -9.78319 -26.7549 60.9671
CA -0.0236279 -1.20363 51.8724
CA -17.5601 -13.7612 54.3824
CA -24.8318 -11.5806 55.5053
CA -36.4815 -25.7767 49.9506
CA -16.7803 -6.36261 59.1992
CA 0.758391 -29.0143 16.1302
CA -12.4409 -26.9613 40.7558
CA -2.43829 -18.4813 46.1712
CA -19.7506 -4.15439 57.1038
CA -12.358 2.42949 52.3603
CA -14.2954 -8.70446 49.278
CA 9.53444 -4.20134 62.6758
CA 25.828 -11.4886 47.485
CA -1.2475 -33.5724 66.6749
CA 2.56947 -15.1356 90.9903
CA -8.86812 -2.16107 40.76
CA 7.06941 -19.0136 41.749
CA -11.2597 -7.15721 62.5244
CA -11.6923 -21.99 61.7795
CA 1.8447 -14.7616 68.1777
CA -15.8513 -27.6676 36.6181
CA -6.90223 -10.4962 67.5862
CA -3.73837 -6.6377 51.026
CA 4.06905 -23.9624 60.6705
CA 8.95618 -1.15809 58.437
CA 9.34525 -36.4205 41.5775
CA -0.946637 -38.4076 78.8632
CA -36.3622 -17.4142 60.8771
CA -12.1242 -17.8189 67.5888
CA -0.656468 -6.73379 59.0737
CA -17.1015 -23.8195 76.0341
CA -10.3105 -3.43031 41.8716
CA 0.588719 -27.0858 15.3525
CA -15.0757 -26.7721 65.8839
CA -15.7703 -11.8138 36.1639
CA -2.59974 -11.8469 88.7737
CA -18.9551 -33.7394 30.9841
CA -6.60888 -19.8725 20.675
CA -30.4714 -16.3609 47.4301
CA -22.8912 -30.8708 34.6929
CA 0.227676 -19.7799 23.4297
CA -7.66201 -39.533 72.3808
CA -28.2379 -16.7564 76.513
CA 8.35593 -16.4313 56.1442
CA -1.07739 -15.3423 79.5309
CA -18.0393 -18.4445 53.1059
CA -13.4122 -12.4641 50.2361
CA -12.7832 -42.8965 75.6085
CA 8.65076 -12.7724 36.9356
CA -32.827 -27.9917 52.3098
CA -8.72324 -13.7977 63.4615
CA -18.8563 -34.2764 71.2603
CA -1.35131 -34.1679 76.2504
CA -14.9163 -5.07763 49.779
CA -10.1959 -26.4199 68.6129
CA -1.78929 -30.6131 67.0274
CA 11.1551 -19.2784 57.435
CA -7.78702 -28.8386 72.6279
CA -27.7825 -14.2572 53.4446
CA -11.3579 14.4816 52.9817
CA -11.9282 0.262979 40.9071
CA -14.8074 -21.2433 63.0239
CA 18.0602 -12.9973 47.0752
CA -0.496341 -35.4715 56.6864
CA -39.0286 -15.0501 56.2546
CA -22.4261 -22.4137 67.895
CA -4.49709 -17.7391 59.345
CA -16.4418 -11.6917 42.1671
CA 0.424476 -36.1854 38.5168
CA 21.7503 -11.2508 49.7011
CA -8.70858 -3.82391 43.5666
CA -17.0716 -5.83659 40.0715
CA 0.382799 -31.3746 18.9354
CA -13.669 -18.057 63.6784
CA -6.19933 -32.7564 63.9834
CA -13.2348 -17.0542 65.79
CA -12.2327 -14.0605 17.8952
CA -2.92914 -24.2307 55.3403
CA 23.6024 -10.9023 49.0133
CA -11.285 -26.0827 32.3582
CA 9.16627 -17.4414 40.2398
CA 8.52106 -43.1018 44.8743
CA 1.20348 -25.9188 37.5968
CA 13.6308 -4.27052 63.2953
CA -6.56334 -33.5765 79.0589
CA 0.642711 1.50239 52.3307
CA -32.3331 -26.9031 47.9134
CA 1.21175 -32.0261 44.3644
CA -14.0575 -11.5824 55.963
CA 5.00028 -8.81474 52.8008
CA -13.9085 -8.508 69.5179
CA 11.6157 -17.0047 28.6877
CA 3.69085 0.582324 58.0715
CA -7.0884 -10.1005 75.3383
CA -26.2647 -21.2553 67.4317
CA -11.4631 -10.799 44.1855
CA 4.07861 -8.09694 49.9055
CA -18.7379 -15.0115 53.414
CA 14.0171 -5.04721 60.6611
CA -24.3863 -21.9903 76.1647
CA -11.5877 -27.6196 30.8471
CA -6.8718 -31.7321 77.5633
CA -24.3671 -17.2072 68.5084
CA -26.7977 -20.1435 75.9007
CA -15.1037 -28.8862 72.7821
CA -1.29589 -22.8185 35.6147
CA 14.4439 -21.9454 60.1331
CA -15.6698 -9.43221 58.3935
CA -14.5401 -34.3801 73.0118
CA -1.89157 -21.1681 46.1526
CA -16.1372 -23.3351 31.3342
CA -14.9789 -6.36908 43.903
CA 8.6896 -47.6457 41.4961
CA -3.01528 -11.3296 46.913
CA -19.4237 -20.2918 61.1234
CA 3.92919 -22.6534 54.2496
CA 7.43265 -21.322 65.523
CA -25.9226 -18.0644 78.7882
CA -15.543 -22.1633 76.8682
CA -26.0019 -13.723 45.7802
CA -11.188 -26.5084 42.0093
CA -9.08556 -5.57648 63.076
CA 13.5415 -40.1706 42.7708
CA -13.9692 -30.5335 30.9119
CA 11.0723 -23.3882 37.3901
CA -4.42832 -25.6413 55.8858
CA -14.1355 -31.8177 66.3121
CA -2.62199 -15.8619 22.9696
CA -16.2101 -15.8715 51.0282
CA -5.93391 10.2306 60.3519
CA -0.36739 -20.6024 10.3979
CA -8.93546 11.2894 57.1781
CA 25.1105 -10.7133 52.4089
CA -21.3351 -28.8538 68.7053
CA 1.4418 -29.8402 45.2674
CA -6.7758 -18.5135 74.3596
CA -2.32822 -8.44959 69.7159
CA -26.3757 -17.9708 76.5319
CA -6.48433 -3.35413 62.0216
CA -3.23898 -12.1105 65.534
CA -5.81745 -31.4968 75.8554
CA -4.98291 14.4278 49.9853
CA 27.3653 -16.3244 47.1664
CA 4.47914 -18.2316 23.0578
CA -17.365 -11.7628 59.5027
CA -4.57395 -14.4148 71.9948
CA 0.623763 -14.0794 74.5199
CA 8.86735 -30.8967 53.6479
CA -0.724906 -34.2632 61.5349
CA 5.71077 -21.8762 42.3638
CA 2.92418 -15.9594 56.0885
CA -16.9692 -18.1347 66.5978
CA -14.621 -16.48 51.9123
