489

CA 11.291 -3.52484 64.9231
CA 0.342479 -13.1133 67.6122
CA 0.197821 -34.6374 61.7526
CA -4.56612 0.731776 46.4327
CA -8.30764 -7.78422 41.6532
CA 4.81924 -32.2917 53.1355
CA -4.54244 -18.9812 32.3463
CA 13.7991 -22.8071 41.5733
CA -9.92867 4.80841 49.2454
CA -16.3089 -25.6571 35.6393
CA -12.0746 -22.0526 41.1631
CA -18.4475 -24.5687 40.5006
CA -16.5932 -29.9068 76.8474
CA -15.2525 -28.3264 75.3487
CA 8.85049 -7.92728 51.4007
CA -4.54948 -10.8072 57.5166
CA -5.5336 -30.902 52.887
CA 10.0736 -18.0899 41.7355
CA 20.2011 -14.9744 45.5047
CA -11.5654 -23.0894 27.4525
CA -10.4447 -18.6252 20.9392
CA -11.2662 -8.87891 24.6939
CA -4.19379 -3.38171 50.0601
CA 9.7534 -12.3241 88.1264
CA 2.25028 -15.0034 82.2376
CA -29.7513 -22.9053 58.2786
CA -39.2958 -19.0319 61.2134
CA 9.41565 -3.58035 60.7597
CA -19.2463 -14.2811 59.2206
CA -6.08972 -18.8445 16.9223
CA -1.54436 -21.1339 75.5821
CA -4.19262 -30.4362 77.5812
CA -4.02266 -8.88917 68.469
CA -5.54124 -30.0139 56.7524
CA -25.5385 -13.3642 76.3061
CA -3.1659 -7.25872 89.8294
CA 5.73068 -14.2861 37.9259
CA -18.148 -33.467 76.4673
CA -14.4107 -1.8267 56.7747
CA -11.008 -13.3512 60.3325
CA 6.59935 -26.7385 16.7019
CA -5.0433 -6.15125 62.2413
CA 1.57499 -21.6603 34.3852
CA -33.756 -28.046 48.7585
CA -12.9258 -33.9878 68.6565
CA -1.85602 -19.6795 68.4148
CA -19.9398 -9.06957 50.1446
CA -24.3166 -34.6867 63.1585
CA -5.22444 -20.9587 25.5977
CA 17.1732 -4.94532 64.3982
CA 11.1721 -32.8645 56.4173
CA -9.61996 -24.4855 64.0739
CA 11.3206 -4.98543 62.7345
CA 6.89994 -23.3319 66.4769
CA -20.003 -14.9827 53.1869
CA -13.8059 -19.6046 67.3747
CA -2.08967 -38.67 73.0307
CA 6.58158 -0.764083 71.4372
CA -26.4536 -12.7312 54.3167
CA -24.2371 -20.758 85.879
CA 10.6278 -12.8639 31.0737
CA -2.58262 -25.2277 42.4516
CA -1.72355 -16.4863 40.0907
CA -6.30063 12.9852 48.6255
CA -11.996 -15.3338 69.0635
CA -12.453 -13.0939 27.6203
CA -5.07885 -27.8494 53.425
CA -3.05977 -20.3505 37.5698
CA -9.01673 -6.13016 68.1358
CA -14.4561 -22.6541 59.8401
CA -15.866 -12.5594 46.8213
CA 3.36997 -17.4051 39.4227
CA 6.71502 -37.4353 55.111
CA -2.61922 -7.03159 58.4294
CA 12.251 -33.4287 47.2048
CA -11.6225 -39.0667 79.088
CA -14.7872 -31.8603 76.2045
CA 0.79497 -10.2378 24.5398
CA -22.2642 -14.3515 57.6655
CA -5.54132 -17.5897 49.1889
CA 1.66428 -19.5049 29.1383
CA -16.4396 -10.464 64.1614
CA 0.31971 -27.0168 74.3522
CA -24.0289 -10.8604 73.1335
CA -8.70475 -14.4495 61.4584
CA 14.968 -32.7205 52.3555
CA 17.6206 -14.7495 48.3914
CA 13.9396 -31.5132 46.6096
CA -2.43826 -12.1644 62.4301
CA -16.3253 -32.9732 64.9596
CA -12.9885 0.505111 47.6662
CA 8.89428 -16.2932 28.2514
CA -19.2778 -12.589 49.9424
CA 0.782399 -15.5899 83.3205
CA -35.0314 -25.402 43.3266
CA -10.4193 -0.499155 39.2731
CA 2.8252 -20.5433 59.1041
CA 1.20456 -6.54376 91.0048
CA -8.43327 -18.0202 25.476
CA -3.10776 -8.79071 60.8491
CA -38.8211 -24.4713 53.2489
CA 3.54848 -33.5962 75.2304
CA -33.0633 -20.1596 61.8708
CA 2.60801 -1.17371 70.1218
CA -10.7656 -13.3538 28.9926
CA 15.0086 -39.2786 44.0375
CA 3.7817 -15.3677 62.3251
CA -6.00346 -27.1054 75.3128
CA -2.56449 -9.76321 71.4978
CA 2.68794 2.53443 62.9266
CA 0.528969 -11.7325 63.8066
CA -3.99874 -24.944 52.3697
CA -0.866613 -20.052 80.7335
CA -0.61845 -13.9497 29.5167
CA -6.27437 -20.8533 50.1185
CA -23.4977 -9.30015 52.6082
CA 0.77536 -20.839 75.0647
CA -13.0483 -18.5115 36.8812
CA -15.5368 -17.0239 49.6923
CA -17.7764 -29.4067 64.4092
CA -3.88756 -27.5783 55.3351
CA -3.64105 -32.3734 78.0561
CA -16.3872 -24.1836 67.0259
CA -29.3461 -21.7084 60.1461
CA -15.2672 -29.372 45.0718
CA 6.72191 -34.5918 54.6799
CA -3.20258 -13.7677 59.6551
CA -1.22691 -15.3103 85.6985
CA -5.46311 -33.9536 67.4728
CA -21.2861 -33.6741 62.0561
CA -4.70688 -19.8624 78.667
CA -1.23565 -22.3399 11.6961
CA -10.2395 -17.768 40.6686
CA -9.60842 -12.0104 69.0916
CA -13.1488 6.18233 58.4803
CA 1.32966 -10.3254 60.9835
CA 12.9463 -19.5551 58.4358
CA -42.2936 -15.565 53.5733
CA -36.6969 -21.6886 60.0853
CA -7.93509 -36.1608 62.0258
CA 23.0145 -14.0411 46.232
CA -11.6199 -6.79621 37.7654
CA 15.403 -29.6783 44.3616
CA 6.80298 -15.5395 39.6801
CA -10.7506 -12.1735 34.233
CA -4.04976 -16.5022 38.7315
CA -21.8356 -5.15408 53.5891
CA -17.0537 -30.793 31.0378
CA -15.8757 -4.256 35.1886
CA -8.05663 -10.5897 61.0782
CA -23.2191 -7.50033 52.6327
CA -5.97988 -14.8806 60.5989
CA -10.2591 -19.1143 80.443
CA -1.7221 -4.33588 59.4928
CA -24.5262 -16.3008 79.4647
CA 11.8344 -33.0308 50.758
CA -12.3701 -17.749 39.838
CA 20.2579 -16.1295 48.2084
CA -29.1324 -17.8386 47.237
CA -26.0174 -15.7898 56.2238
CA -18.1518 -7.1842 38.166
CA 4.57474 -15.1344 34.298
CA 4.38887 -18.3298 40.6662
CA 3.45966 -18.7616 59.1216
CA -7.93859 -13.2134 57.6495
CA 2.08718 -39.2126 34.0459
CA -17.0509 -33.5757 61.6337
CA -5.59723 -26.1069 39.5028
CA -11.1854 2.08768 47.8055
CA -8.18347 -31.0362 66.537
CA 7.83439 -18.6417 55.7559
CA -30.3598 -22.3231 52.851
CA -0.906008 -19.1131 30.3321
CA -40.8329 -17.172 57.8236
CA -8.46619 -35.0081 72.678
CA 15.6653 -14.4782 43.5637
CA -26.8271 -15.0804 51.3268
CA -17.0038 -6.97494 41.9042
CA -1.34933 -18.6297 40.8083
CA -4.40198 -7.92608 70.1873
CA -18.6396 -19.2027 59.3996
CA -38.3419 -21.4072 57.7682
CA -18.1015 -14.7976 56.6975
CA 9.27596 -33.7573 43.9936
CA -1.86374 4.37108 51.6236
CA 1.30634 -22.7807 57.4774
CA 3.84006 -30.8747 17.1142
CA 5.00399 -15.7315 54.7539
CA -0.961727 -31.9572 52.7327
CA -0.627235 -23.7133 39.7768
CA -2.81454 -13.7137 24.5173
CA 9.51908 -19.9295 41.1584
CA 17.5479 -31.5449 50.9329
CA -8.79363 8.2186 50.2668
CA -11.2064 -24.3797 59.1614
CA 7.36643 -0.800188 60.5719
CA -15.7082 -17.797 41.9981
CA -25.6658 -9.97175 55.6498
CA -4.93953 -7.44289 55.1607
CA -17.1834 -45.2069 75.9247
CA -17.4069 -9.21779 65.7218
CA 3.41733 -33.4432 55.7845
CA -2.82881 -27.3506 11.6899
CA 1.36902 -32.5243 39.8646
CA -12.379 -9.97274 64.4602
CA 16.0061 3.84729 55.0761
CA -21.3314 -12.1375 48.1518
CA -13.5017 -13.3922 36.8439
CA -5.71485 -30.6367 67.8409
CA -27.7627 -14.6774 80.6266
CA -24.0193 -12.8429 69.3966
CA -11.5702 11.933 55.8143
CA -13.8345 -25.1576 65.8306
CA -8.04408 -37.5662 76.6616
CA -19.9625 -8.01973 64.9721
CA 1.36481 -35.0201 36.1025
CA -6.23503 -29.8203 64.6401
CA -17.2244 -5.89579 57.2471
CA 11.7848 -9.79726 33.7074
CA -15.5197 -27.5486 69.1432
CA -1.44979 -31.5802 58.8745
CA 10.574 -15.053 26.9639
CA -7.49061 -23.6856 62.4626
CA 8.74296 -47.4016 42.8289
CA 2.90511 -3.35332 51.0919
CA -18.5844 -8.74011 68.096
CA 17.2928 -20.0271 44.8142
CA -8.62805 -20.1213 81.6863
CA -8.47441 -41.103 80.02
CA -1.89832 -18.9833 63.4727
CA -12.958 -30.1991 61.2262
CA 0.672089 -20.3204 62.9276
CA -20.6469 -21.8914 73.7963
CA -41.7784 -19.0953 63.6712
CA -10.8134 -23.7148 40.6447
CA -16.9032 -14.4672 49.9369
CA -27.8963 -20.733 60.5852
CA -17.5183 -21.6643 76.6581
CA -0.260248 -21.4802 15.8805
CA -7.34615 0.681356 40.3467
CA -0.457725 -12.0855 88.0913
CA -4.17677 -24.8913 78.4897
CA -13.0462 10.0417 51.9726
CA 4.50978 -26.888 10.7301
CA -12.5412 -25.1051 46.7984
CA -36.5402 -15.7392 56.4992
CA 5.53181 -31.1493 75.2157
CA -2.48753 -15.4283 25.4054
CA -15.5157 -28.2453 42.3269
CA -4.16906 -36.5369 74.2222
CA -5.99295 -12.5419 71.3888
CA -13.9827 -26.919 75.7153
CA -18.1632 -18.0961 61.8302
CA 12.9234 0.153938 53.1963
CA -2.96784 -24.3535 36.5956
CA 5.66435 -23.1834 56.5231
CA 14.4036 -9.11952 60.6563
CA -23.327 -15.5858 53.7521
CA 11.7878 -15.4524 81.9018
CA 8.26411 -31.9842 51.0364
CA 8.05282 -12.29 34.9935
CA -15.3188 -30.352 59.4888
CA -1.42833 -27.3304 42.3832
CA -6.22874 -20.4778 12.8691
CA -19.5821 -9.93624 59.0557
CA 3.49582 2.10544 65.9461
CA -11.9667 6.20652 44.1535
CA -14.1822 -6.44445 41.9316
CA -24.2162 -30.347 77.9121
CA -20.6367 -9.13778 57.4705
CA 5.34509 -13.5478 89.1058
CA 4.81424 -27.5789 73.9268
CA -0.0612024 -16.2178 74.1073
CA -27.5462 -12.7637 72.6627
CA 9.3238 -12.1053 32.4058
CA -21.9216 -29.6625 29.0377
CA 4.73343 -18.8673 62.0223
CA -9.71349 12.7874 58.9663
CA -17.0184 -5.39777 54.5151
CA -1.154 -4.16101 47.9785
CA -9.59245 -23.4594 58.0176
CA -6.70957 -22.6993 59.8325
CA -7.84447 11.2613 55.0314
CA -34.8555 -23.1758 58.4998
CA -5.36981 -33.9344 75.5472
CA 1.14065 2.36312 48.7434
CA -21.3828 -22.9302 84.6607
CA -12.5115 -20.4666 38.9427
CA -1.21314 -20.9616 25.4013
CA 9.21204 -15.9933 78.4459
CA -22.6032 -12.4587 58.1567
CA -19.5098 -16.7902 57.1063
CA -4.70729 -21.5442 43.7561
CA 8.21724 -14.1228 84.3831
CA 16.8869 -33.248 49.4477
CA -13.4073 0.966498 55.2416
CA -11.8223 -14.6387 62.528
CA -7.0124 -34.4448 74.4039
CA -11.0466 -23.0653 53.8884
CA -0.903572 -23.5936 28.5909
CA 1.14669 -11.5991 82.7357
CA 2.65947 -30.6157 37.9995
CA -7.21695 -18.0758 64.5607
CA -18.5167 -32.55 27.9754
CA -2.06646 -17.3986 42.6018
CA 3.22045 -20.4191 32.2765
CA 7.85064 -4.7374 54.4955
CA -23.0193 -22.3672 85.5325
CA -12.2512 -43.9262 73.8327
CA 16.9502 -0.649487 49.8591
CA -7.87038 -34.766 77.1878
CA -10.0082 19.5638 54.8205
CA -23.8095 -13.0177 55.1092
CA -7.98456 8.72918 57.9593
CA 3.8212 -26.8337 12.9137
CA -6.55809 -24.6812 53.2426
CA -11.4922 6.36374 48.9178
CA -0.332267 -29.3257 62.3475
CA 0.410752 -32.7796 55.44
CA 7.84483 -5.22753 63.0327
CA 8.5614 -16.4929 62.8972
CA -30.52 -20.1435 67.7653
CA -15.546 -13.8911 66.2719
CA -19.6385 -9.84272 66.1037
CA -1.34985 -27.2864 57.2519
CA -32.2813 -15.2127 70.2194
CA -4.97423 -13.6951 88.6536
CA -16.576 -6.80339 45.6724
CA -20.9966 -26.6427 79.1567
CA -6.30644 -31.363 72.5633
CA -10.6344 -20.5715 24.7095
CA 11.8273 -4.10128 68.5624
CA -13.1947 -8.99402 60.8541
CA -24.7634 -28.1967 80.1132
CA 5.33509 -30.2005 41.0011
CA -13.7418 -27.5475 77.4183
CA -2.80555 -12.2039 55.92
CA 9.43501 -7.56379 64.47
CA -24.8318 -11.5806 55.5053
CA -13.788 -22.1374 24.31
CA 8.75174 -29.5631 16.7272
CA 0.758391 -29.0143 16.1302
CA -12.4409 -26.9613 40.7558
CA -2.43829 -18.4813 46.1712
CA -0.0325944 -37.2564 64.9359
CA -12.358 2.42949 52.3603
CA -14.2954 -8.70446 49.278
CA -38.28 -25.5443 60.726
CA 25.9381 -10.2304 47.4554
CA 1.71707 -37.5995 63.7706
CA -12.7711 3.60425 49.7997
CA -12.4151 -15.916 56.8475
CA 7.06941 -19.0136 41.749
CA 9.35772 -31.7857 54.7015
CA -1.46757 -17.1887 28.2544
CA 2.55594 -21.5007 28.058
CA 8.33441 -3.92723 71.0377
CA 10.4422 -30.6835 56.8334
CA -3.73837 -6.6377 51.026
CA -27.4256 -15.3999 54.7159
CA 8.95618 -1.15809 58.437
CA 9.34525 -36.4205 41.5775
CA -46.5035 -13.0178 60.5866
CA -36.3622 -17.4142 60.8771
CA 6.53818 -24.0935 69.1283
CA 11.2237 -3.03653 53.89
CA -17.1015 -23.8195 76.0341
CA -10.3105 -3.43031 41.8716
CA 0.588719 -27.0858 15.3525
CA 5.98723 -14.3878 80.1512
CA -15.7703 -11.8138 36.1639
CA -4.38958 -12.4491 67.4354
CA -18.9551 -33.7394 30.9841
CA -6.60888 -19.8725 20.675
CA -30.4714 -16.3609 47.4301
CA -29.5842 -21.7137 69.6832
CA 0.227676 -19.7799 23.4297
CA -7.66201 -39.533 72.3808
CA -1.61354 -39.0109 62.0189
CA 8.35593 -16.4313 56.1442
CA -1.07739 -15.3423 79.5309
CA -18.0393 -18.4445 53.1059
CA -13.4122 -12.4641 50.2361
CA -12.7832 -42.8965 75.6085
CA 6.47543 -2.36702 50.5301
CA -4.48157 -12.0863 92.7171
CA 6.05455 -13.7488 91.0617
CA -26.0554 -17.412 58.2316
CA -1.35131 -34.1679 76.2504
CA -14.9163 -5.07763 49.779
CA -10.1959 -26.4199 68.6129
CA -1.78929 -30.6131 67.0274
CA 17.0794 -16.7049 44.6773
CA 7.21447 -13.6616 93.5479
CA -28.4573 -14.4837 60.4111
CA -11.3579 14.4816 52.9817
CA -11.9282 0.262979 40.9071
CA -15.6194 -17.5159 66.0034
CA 11.8602 -37.5715 41.8888
CA -15.7963 0.386257 47.2804
CA -9.36023 -32.6489 70.3328
CA -6.06701 -23.318 56.4233
CA -14.0673 -18.6531 77.2518
CA -41.2171 -17.2909 49.6306
CA -15.7442 -14.3251 54.3877
CA 21.7503 -11.2508 49.7011
CA -8.70858 -3.82391 43.5666
CA -15.8038 -19.9946 60.3333
CA -22.8639 -16.8244 55.161
CA 7.0658 -4.12313 61.7645
CA -6.19933 -32.7564 63.9834
CA -13.2348 -17.0542 65.79
CA -1.29639 -31.9969 65.6756
CA 12.9842 -7.05359 67.9505
CA 23.6024 -10.9023 49.0133
CA -11.285 -26.0827 32.3582
CA -15.465 -18.7682 58.0988
CA 8.52106 -43.1018 44.8743
CA 1.20348 -25.9188 37.5968
CA 13.6308 -4.27052 63.2953
CA -12.1089 -27.5747 59.2507
CA 0.642711 1.50239 52.3307
CA -1.53684 -22.2962 40.8842
CA 1.21175 -32.0261 44.3644
CA 0.275832 -12.1388 61.0704
CA -36.5019 -24.5361 48.539
CA -22.7517 -22.2584 82.048
CA -5.86506 -21.2724 55.5257
CA 3.69085 0.582324 58.0715
CA -18.4199 -18.5084 64.4129
CA -26.2647 -21.2553 67.4317
CA -11.4631 -10.799 44.1855
CA -1.8463 -16.5864 74.2271
CA -13.7204 6.36853 55.3384
CA -12.9115 -4.32029 38.5921
CA -24.3863 -21.9903 76.1647
CA 8.90118 -34.0016 58.3215
CA -4.25596 -30.118 72.1032
CA -24.3671 -17.2072 68.5084
CA -26.7977 -20.1435 75.9007
CA 6.87583 -19.6755 62.4911
CA -1.29589 -22.8185 35.6147
CA 3.36725 -1.97777 54.2162
CA -21.9503 -23.5413 77.3827
CA -15.2546 -26.4536 42.2762
CA 10.4902 -22.8668 62.3795
CA 5.41097 1.26006 69.1638
CA -14.9789 -6.36908 43.903
CA -8.2118 9.98688 48.2031
CA 1.69763 -12.4712 28.482
CA -26.0002 -26.1734 67.6018
CA 2.34276 -23.9675 71.3023
CA 2.03162 -38.1459 76.5751
CA -10.1815 -21.3821 56.1885
CA -15.543 -22.1633 76.8682
CA -26.0019 -13.723 45.7802
CA -11.188 -26.5084 42.0093
CA 4.60705 -34.3981 79.0086
CA 13.5415 -40.1706 42.7708
CA -40.4996 -19.9154 54.6295
CA 11.0723 -23.3882 37.3901
CA -12.5844 -19.6456 83.5979
CA 7.36751 -16.3595 85.701
CA 11.844 -44.2447 44.3251
CA -16.2101 -15.8715 51.0282
CA -11.6052 -30.1152 31.7933
CA -4.12731 -18.4029 9.08264
CA -8.93546 11.2894 57.1781
CA -35.9277 -17.0407 45.8397
CA -14.905 -4.51982 38.7347
CA 3.83523 -34.593 58.4805
CA -19.2807 -6.93001 68.1143
CA -2.32822 -8.44959 69.7159
CA 11.2358 -31.0924 60.7496
CA -16.4083 -8.80988 42.145
CA -9.78179 -6.11704 41.1204
CA 9.88881 -25.9772 67.5826
CA -4.98291 14.4278 49.9853
CA -1.42326 -34.3243 64.8877
CA 4.47914 -18.2316 23.0578
CA -2.12521 -12.7398 29.8674
CA -27.5007 -20.7871 48.0941
CA -21.0687 -16.847 49.672
CA -19.9459 -13.3298 48.3261
CA -25.8421 -10.2953 73.7422
CA 8.15109 -32.5758 55.8222
CA -6.43063 -38.2405 70.4332
CA -43.4562 -16.1629 63.1244
CA -5.8432 -17.162 61.5035
