489

CA 11.291 -3.52484 64.9231
CA -9.82534 -15.9206 60.4234
CA -12.4413 -30.2937 39.9551
CA -4.56612 0.731776 46.4327
CA -8.30764 -7.78422 41.6532
CA -3.80749 -33.5819 72.5629
CA 8.28304 -32.159 57.7123
CA 13.7991 -22.8071 41.5733
CA -9.92867 4.80841 49.2454
CA -9.71419 -26.2695 42.8439
CA -12.0746 -22.0526 41.1631
CA -18.4475 -24.5687 40.5006
CA -16.5932 -29.9068 76.8474
CA -10.0807 -21.7304 40.9222
CA -10.5023 -11.9204 36.6708
CA -37.435 -21.1574 61.988
CA -5.5336 -30.902 52.887
CA -19.8778 -28.9718 66.5699
CA 0.940093 -19.1283 80.1254
CA -24.687 -30.4027 66.3657
CA -10.4447 -18.6252 20.9392
CA -9.34589 13.1911 53.4051
CA -4.19379 -3.38171 50.0601
CA 9.7534 -12.3241 88.1264
CA -30.6894 -20.8258 68.0418
CA -29.7513 -22.9053 58.2786
CA -39.2958 -19.0319 61.2134
CA -16.6404 -18.8694 68.5958
CA 4.43238 -6.83592 57.6254
CA -6.08972 -18.8445 16.9223
CA 5.22133 -30.6952 66.0443
CA -4.19262 -30.4362 77.5812
CA 5.241 -18.4478 42.7665
CA 16.6531 -7.85501 64.2327
CA -25.5385 -13.3642 76.3061
CA -3.1659 -7.25872 89.8294
CA -1.66114 -5.89519 53.6662
CA -16.0525 -16.9243 59.8818
CA -30.5745 -19.8385 50.1201
CA -11.008 -13.3512 60.3325
CA 5.01742 -13.4493 38.3953
CA -5.0433 -6.15125 62.2413
CA 12.1268 -34.2027 58.1365
CA -33.756 -28.046 48.7585
CA -3.14115 -4.29526 57.5363
CA -22.8522 -26.686 25.7149
CA -20.5981 -11.1547 62.171
CA -24.3166 -34.6867 63.1585
CA 2.47504 -26.5337 61.4307
CA 0.861032 -26.5365 18.2704
CA 13.5153 -8.4766 33.2813
CA -11.0739 -6.94585 64.7311
CA 11.3206 -4.98543 62.7345
CA -16.1513 -9.53084 42.2917
CA 9.35422 -8.94356 62.569
CA 10.4908 -17.7091 38.0618
CA -2.08967 -38.67 73.0307
CA 6.58158 -0.764083 71.4372
CA 2.84387 -18.4494 81.1393
CA -11.1219 -19.9818 32.928
CA 12.3406 -31.4102 55.585
CA 6.10071 -0.28634 58.0849
CA -12.8484 -24.9831 39.5559
CA -14.5409 -4.36789 58.2499
CA 3.92914 -35.3507 60.0662
CA -11.1793 -21.4367 49.4719
CA -5.07885 -27.8494 53.425
CA -5.44004 -19.8934 47.4585
CA 8.60259 -23.6249 64.8296
CA -10.7703 -20.1687 58.3105
CA -15.866 -12.5594 46.8213
CA 3.36997 -17.4051 39.4227
CA -0.729821 -26.5179 12.6952
CA -2.61922 -7.03159 58.4294
CA -1.44546 -14.3755 89.9545
CA -11.6225 -39.0667 79.088
CA -40.1617 -15.0518 61.4723
CA 2.01917 -28.6105 76.3726
CA -23.5986 -22.8398 67.7515
CA -5.54132 -17.5897 49.1889
CA 1.66428 -19.5049 29.1383
CA -26.1556 -35.4021 62.0835
CA -7.86402 -24.5033 44.4827
CA 8.64765 -10.4152 25.9605
CA -8.70475 -14.4495 61.4584
CA -11.605 -28.3598 47.9527
CA 17.6206 -14.7495 48.3914
CA 7.11432 -18.028 31.4884
CA 2.2263 -24.8197 12.9341
CA -32.1867 -22.0984 67.8969
CA -12.9885 0.505111 47.6662
CA 10.5258 -21.425 60.6979
CA -0.221979 0.730239 60.3421
CA -1.37699 -14.1615 27.1029
CA -18.0838 -22.4625 61.0823
CA -12.8711 -25.2782 70.4911
CA 2.8252 -20.5433 59.1041
CA 3.79394 -28.3129 46.5561
CA -8.43327 -18.0202 25.476
CA 9.65867 -33.2754 42.0315
CA -38.8211 -24.4713 53.2489
CA -1.37694 -34.0196 55.5705
CA -12.4612 -13.3391 61.9199
CA -1.86763 -25.5073 53.6813
CA -10.7656 -13.3538 28.9926
CA 15.0086 -39.2786 44.0375
CA -9.38036 -31.2944 56.1965
CA -12.4705 -10.5045 62.3018
CA -2.56449 -9.76321 71.4978
CA 9.41534 -19.3125 80.0154
CA -5.43316 -22.0887 79.8971
CA -3.99874 -24.944 52.3697
CA -0.866613 -20.052 80.7335
CA -0.448051 -14.4817 88.0564
CA -14.2538 -21.3559 42.9256
CA -23.4977 -9.30015 52.6082
CA 0.77536 -20.839 75.0647
CA -13.0483 -18.5115 36.8812
CA -15.5368 -17.0239 49.6923
CA -17.7764 -29.4067 64.4092
CA -10.7614 -9.67765 34.625
CA -3.64105 -32.3734 78.0561
CA 8.32827 -10.4489 88.5476
CA -29.3461 -21.7084 60.1461
CA 4.08935 -34.8114 76.7824
CA -29.772 -14.7332 53.049
CA 11.7053 -10.1451 30.7977
CA -9.84654 -13.9905 55.9325
CA -10.2278 -16.8384 35.3743
CA -21.2861 -33.6741 62.0561
CA 8.56152 -21.192 62.4292
CA -1.23565 -22.3399 11.6961
CA -10.2395 -17.768 40.6686
CA 7.57395 -23.4107 46.4182
CA -3.79578 -17.0969 62.739
CA 1.32966 -10.3254 60.9835
CA 5.59755 -34.3027 71.8502
CA -42.2936 -15.565 53.5733
CA 0.952092 -34.0235 45.6059
CA -15.052 4.51797 51.7775
CA 23.0145 -14.0411 46.232
CA -11.6199 -6.79621 37.7654
CA -3.51264 -20.6739 52.9082
CA -18.5645 -45.9085 78.6936
CA -10.7506 -12.1735 34.233
CA -3.4956 -33.76 74.6125
CA -12.1023 -16.6848 36.3288
CA -21.7918 -10.5758 56.3353
CA -15.8757 -4.256 35.1886
CA -4.80498 -14.3572 65.0974
CA -19.6487 -7.15237 47.4708
CA -7.94405 -2.28471 56.996
CA -10.2591 -19.1143 80.443
CA 4.63255 -29.9705 69.5449
CA -13.629 -28.0257 27.4477
CA -13.989 -16.4011 43.6982
CA -12.3701 -17.749 39.838
CA -12.6866 -23.6478 44.0028
CA -29.1324 -17.8386 47.237
CA -26.0174 -15.7898 56.2238
CA -18.1518 -7.1842 38.166
CA -14.5535 -12.5217 54.8059
CA 5.21441 -32.2913 68.1962
CA 3.00228 -13.1627 61.5965
CA -7.93859 -13.2134 57.6495
CA -6.50139 -22.2836 21.3409
CA -17.0509 -33.5757 61.6337
CA -26.0206 -19.5647 54.2991
CA -28.053 -12.1521 51.1006
CA -20.4817 -33.0055 30.9465
CA 7.83439 -18.6417 55.7559
CA -30.3598 -22.3231 52.851
CA -0.906008 -19.1131 30.3321
CA -5.43014 -18.7389 45.9489
CA -20.4245 -10.8721 38.2829
CA -5.28117 -19.4557 62.4679
CA -7.63005 -19.2027 69.2519
CA -16.1712 -11.0749 70.1025
CA -1.34933 -18.6297 40.8083
CA -15.6178 -22.816 74.2632
CA 6.56039 -11.6823 25.1913
CA -38.3419 -21.4072 57.7682
CA -22.7143 -9.39513 61.5604
CA -20.7298 -35.4336 63.739
CA -1.86374 4.37108 51.6236
CA 1.30634 -22.7807 57.4774
CA 3.84006 -30.8747 17.1142
CA 5.00399 -15.7315 54.7539
CA 5.98079 -10.1349 61.4418
CA -0.627235 -23.7133 39.7768
CA 6.59071 -17.1782 89.2155
CA 9.51908 -19.9295 41.1584
CA -6.21581 -3.65619 52.5755
CA -8.79363 8.2186 50.2668
CA -19.5434 -6.06368 32.2813
CA -22.0748 -29.6711 42.0755
CA -15.7082 -17.797 41.9981
CA -25.6658 -9.97175 55.6498
CA -13.9803 -29.4671 68.2071
CA -17.1834 -45.2069 75.9247
CA -5.39045 -18.3617 64.8469
CA 3.41733 -33.4432 55.7845
CA -7.77425 -12.8985 55.4957
CA -0.128159 -6.65227 54.485
CA -12.379 -9.97274 64.4602
CA -15.7033 -27.6432 59.637
CA -16.0406 -24.0168 41.0112
CA -13.5017 -13.3922 36.8439
CA -8.33447 -26.3846 69.5174
CA 7.84093 -10.8323 33.9405
CA -24.0193 -12.8429 69.3966
CA -30.6427 -23.3361 48.4306
CA -13.8345 -25.1576 65.8306
CA -8.04408 -37.5662 76.6616
CA -19.9625 -8.01973 64.9721
CA -10.6531 -24.3912 64.112
CA -6.23503 -29.8203 64.6401
CA -17.2244 -5.89579 57.2471
CA -4.18697 -20.3787 20.8475
CA -12.9029 3.21572 42.611
CA -4.64888 -4.91257 54.2375
CA -21.9061 -13.3927 52.8857
CA -7.49061 -23.6856 62.4626
CA 8.74296 -47.4016 42.8289
CA 2.90511 -3.35332 51.0919
CA -25.9925 -36.0998 64.2788
CA 17.2928 -20.0271 44.8142
CA -8.62805 -20.1213 81.6863
CA -8.47441 -41.103 80.02
CA -15.1601 -6.55438 42.8418
CA -9.96331 -19.1755 69.9101
CA 0.672089 -20.3204 62.9276
CA -0.793861 -15.6831 81.5401
CA -41.7784 -19.0953 63.6712
CA -13.4818 -13.5993 57.9808
CA 0.704942 -3.75337 46.0922
CA 13.8419 -7.76311 62.1184
CA 11.1568 -7.16705 62.5691
CA -0.260248 -21.4802 15.8805
CA -6.90154 -17.9962 59.7171
CA -0.457725 -12.0855 88.0913
CA 2.9782 -31.5465 55.0532
CA 13.2295 -14.675 43.1139
CA 4.50978 -26.888 10.7301
CA -12.5412 -25.1051 46.7984
CA -28.1143 -20.1876 62.7579
CA -17.1725 -17.5451 63.4309
CA -15.065 -31.8762 47.6095
CA -15.5157 -28.2453 42.3269
CA -2.17338 -11.5134 60.8194
CA -3.52255 -21.0562 80.0799
CA -22.8085 -7.62922 60.7741
CA -18.1632 -18.0961 61.8302
CA -5.52638 -17.7302 79.4239
CA 9.6855 -7.751 58.7266
CA -28.1276 -12.4611 81.1074
CA 14.4036 -9.11952 60.6563
CA -8.63671 -28.9612 65.1639
CA 11.7878 -15.4524 81.9018
CA 8.26411 -31.9842 51.0364
CA 8.05282 -12.29 34.9935
CA -15.3188 -30.352 59.4888
CA -1.42833 -27.3304 42.3832
CA -6.22874 -20.4778 12.8691
CA 0.282095 -23.7496 80.6004
CA 10.1486 -33.1108 54.7865
CA -20.096 -28.0697 28.3518
CA -1.93924 -27.0435 36.8494
CA -26.5946 -21.5931 77.0323
CA 3.10629 -27.2843 39.5805
CA 5.34509 -13.5478 89.1058
CA 4.81424 -27.5789 73.9268
CA 4.62939 -22.057 63.7433
CA -27.5462 -12.7637 72.6627
CA 9.3238 -12.1053 32.4058
CA -21.9216 -29.6625 29.0377
CA 3.93382 -37.8538 39.2787
CA -46.682 -16.6361 59.4226
CA 6.9271 -30.8895 17.8344
CA 4.51731 -10.4805 26.2404
CA -21.6181 -12.6792 59.6413
CA -21.2076 -24.9505 40.6589
CA -7.84447 11.2613 55.0314
CA 3.4902 -4.25612 89.1821
CA -16.3004 -23.5215 60.4265
CA 1.14065 2.36312 48.7434
CA -16.6933 -26.0129 38.4669
CA -20.3287 -26.6828 41.0138
CA -7.03174 -36.8112 75.3389
CA -29.2791 -25.7198 64.1194
CA 3.39747 -35.3642 65.8698
CA -27.7105 -16.7305 68.1069
CA -4.70729 -21.5442 43.7561
CA 8.21724 -14.1228 84.3831
CA -24.2435 -11.3222 52.5192
CA -13.4073 0.966498 55.2416
CA -7.51283 -18.4805 45.8913
CA -3.79599 -10.4263 55.4898
CA 6.89538 -8.85018 55.9025
CA -0.903572 -23.5936 28.5909
CA 3.29981 -37.6441 54.2399
CA 2.65947 -30.6157 37.9995
CA -16.1064 -20.5905 70.2121
CA 1.19357 -19.1878 59.8664
CA -14.6091 -23.7565 75.4371
CA -1.09902 -41.7888 61.965
CA 7.85064 -4.7374 54.4955
CA 0.0399424 -18.0861 83.3609
CA -27.991 -13.5473 53.0608
CA 1.85513 -28.8325 14.1052
CA 4.33766 -17.7445 31.4615
CA -10.0082 19.5638 54.8205
CA -36.238 -25.8922 62.7564
CA -7.98456 8.72918 57.9593
CA -11.5558 -24.8889 30.187
CA -6.55809 -24.6812 53.2426
CA -6.57338 -14.4317 55.2862
CA 6.33032 -13.8561 39.8378
CA -5.66945 17.7564 54.9696
CA -31.7465 -18.3867 52.508
CA -22.2409 -13.9041 61.5747
CA -8.45047 -17.8228 34.9576
CA 6.89448 -17.3281 40.1551
CA -19.6385 -9.84272 66.1037
CA -32.6122 -20.4122 57.4196
CA -28.2342 -19.4217 56.9821
CA -4.97423 -13.6951 88.6536
CA -16.576 -6.80339 45.6724
CA -20.9966 -26.6427 79.1567
CA -19.0147 -11.2212 68.932
CA -7.85258 -30.8643 57.7706
CA 11.8273 -4.10128 68.5624
CA -13.1947 -8.99402 60.8541
CA -17.8665 -7.91478 59.9983
CA 5.33509 -30.2005 41.0011
CA -13.7418 -27.5475 77.4183
CA -21.219 -3.08777 59.6305
CA 5.8802 -13.0203 60.8401
CA -24.8318 -11.5806 55.5053
CA -25.0027 -11.3333 61.8127
CA -18.317 -26.9449 45.5824
CA 0.758391 -29.0143 16.1302
CA -25.5668 -27.4462 63.7165
CA 1.23963 -4.75729 92.3618
CA -0.0325944 -37.2564 64.9359
CA -12.358 2.42949 52.3603
CA -2.43726 -17.3196 88.4725
CA -4.58951 -28.6974 63.7634
CA -25.4283 -31.2723 64.7938
CA 1.71707 -37.5995 63.7706
CA -41.5515 -18.5642 57.8406
CA -30.6131 -18.1996 69.3213
CA -21.0228 -11.227 65.5079
CA 5.9024 -16.0654 31.9765
CA -6.3282 -5.19615 58.0041
CA -21.7429 -10.3472 53.5486
CA 8.33441 -3.92723 71.0377
CA -13.753 -10.6574 54.7086
CA 9.55596 -23.1229 68.3958
CA -34.5816 -20.0878 56.4212
CA 2.27233 -36.5013 42.4806
CA -16.435 -6.1259 65.3783
CA -46.5035 -13.0178 60.5866
CA -25.5957 -19.928 70.5723
CA 6.53818 -24.0935 69.1283
CA 2.00591 -37.3009 33.2286
CA -17.3102 -16.7002 54.8152
CA 8.39304 -9.2045 58.9014
CA 0.588719 -27.0858 15.3525
CA 5.98723 -14.3878 80.1512
CA 2.87924 -17.0926 93.3945
CA -4.38958 -12.4491 67.4354
CA -3.61845 -35.6067 76.1698
CA 5.96689 -14.5798 83.0244
CA 1.95915 -32.2043 81.3445
CA -6.01406 -15.337 25.8071
CA 0.227676 -19.7799 23.4297
CA -7.66201 -39.533 72.3808
CA -1.61354 -39.0109 62.0189
CA 8.35593 -16.4313 56.1442
CA -6.46345 -10.1851 45.4901
CA -15.4801 -34.7906 60.8255
CA -13.4122 -12.4641 50.2361
CA -12.7832 -42.8965 75.6085
CA 6.47543 -2.36702 50.5301
CA 1.89632 -34.6152 77.4994
CA -0.866118 -37.9593 34.8061
CA 1.42723 -36.0869 37.8569
CA -1.35131 -34.1679 76.2504
CA -14.0565 -9.37177 58.246
CA -10.1959 -26.4199 68.6129
CA 7.69226 -32.5937 69.2935
CA 17.0794 -16.7049 44.6773
CA 7.43656 0.452069 59.0497
CA -28.4573 -14.4837 60.4111
CA -11.3579 14.4816 52.9817
CA 14.7448 -21.9682 44.0648
CA -15.6194 -17.5159 66.0034
CA 11.8602 -37.5715 41.8888
CA -15.7963 0.386257 47.2804
CA -28.8015 -12.1212 69.431
CA -4.84477 -30.5607 65.8863
CA -12.1056 -14.7986 38.3086
CA -8.05641 14.6994 45.256
CA -15.9419 -29.0348 30.1814
CA 21.7503 -11.2508 49.7011
CA 4.16817 -25.6414 43.9287
CA 4.58624 -35.5115 53.6502
CA -16.5768 -20.0784 77.2074
CA 1.05196 -15.7587 29.9222
CA 0.370392 -3.92969 88.3389
CA 5.79408 -9.58142 58.0215
CA -3.11668 -34.624 78.2882
CA -13.8116 -35.1988 64.2678
CA 23.6024 -10.9023 49.0133
CA -21.3727 -30.7774 25.1667
CA -15.465 -18.7682 58.0988
CA -6.45441 -15.0155 90.6495
CA 4.40438 0.357347 59.9185
CA 18.1215 -8.96537 67.498
CA -12.8516 -11.1555 56.3141
CA 6.78795 -29.0764 70.9562
CA -1.53684 -22.2962 40.8842
CA 1.21175 -32.0261 44.3644
CA -14.6052 -27.7077 61.887
CA -36.5019 -24.5361 48.539
CA -22.7517 -22.2584 82.048
CA 7.21644 -3.15236 56.1628
CA 3.69085 0.582324 58.0715
CA -18.4199 -18.5084 64.4129
CA -26.2647 -21.2553 67.4317
CA -22.0446 -16.8721 52.9345
CA -1.24316 -6.43416 87.8107
CA 2.75074 -14.6373 32.6401
CA -3.9053 -15.3478 87.0211
CA -19.8124 -34.5637 61.4567
CA -15.7541 -32.5022 58.8238
CA -6.70467 15.2289 47.7188
CA -16.2689 -16.9229 73.0288
CA -26.7977 -20.1435 75.9007
CA 3.55857 -7.98768 59.2097
CA -1.29589 -22.8185 35.6147
CA -18.249 -4.74547 58.1987
CA -17.8773 -33.3034 54.7314
CA -15.2546 -26.4536 42.2762
CA 10.4902 -22.8668 62.3795
CA 6.34747 -20.2481 60.4685
CA -14.49 -0.619788 41.2653
CA -8.2118 9.98688 48.2031
CA 1.69763 -12.4712 28.482
CA -26.0002 -26.1734 67.6018
CA 2.34276 -23.9675 71.3023
CA -14.269 -21.8369 27.0248
CA -10.1815 -21.3821 56.1885
CA -18.8402 -11.7398 64.82
CA -18.1041 -5.46345 55.7264
CA -12.889 -19.4566 32.5224
CA 4.60705 -34.3981 79.0086
CA 13.5415 -40.1706 42.7708
CA -7.0568 -27.2806 49.7436
CA -21.3598 -20.1262 56.5011
CA -32.1614 -17.3264 49.117
CA -9.65828 -39.7302 70.9391
CA 11.844 -44.2447 44.3251
CA -12.5242 -26.4326 28.8534
CA -17.7062 -6.58322 69.7157
CA -10.3192 -25.1878 45.7585
CA -8.93546 11.2894 57.1781
CA -35.9277 -17.0407 45.8397
CA -9.73622 -27.5275 66.9092
CA -34.9028 -22.7612 59.8052
CA -11.1736 -21.2686 77.66
CA -2.32822 -8.44959 69.7159
CA 2.77275 -35.252 74.8167
CA 8.54076 -30.4614 55.3229
CA 5.75132 -15.545 92.0297
CA -5.31389 5.51675 48.6102
CA 6.16153 -15.9603 37.6907
CA -1.42326 -34.3243 64.8877
CA -11.899 -20.6836 44.1644
CA -2.12521 -12.7398 29.8674
CA -22.8334 -44.6665 76.6444
CA -4.08682 -33.248 64.3639
CA -8.11208 -32.4344 80.1813
CA -20.9827 -9.84239 68.8712
CA 0.758239 -6.63547 52.0786
CA -20.6197 -27.7365 77.6768
CA 4.15927 -35.4087 38.6258
CA -15.0056 -28.9683 35.8484
