489

CA -19.2663 3.40848 55.4858
CA 7.57349 -37.8487 71.4337
CA -8.18755 -34.2507 55.9367
CA 12.017 -28.2573 70.1183
CA -6.50904 -21.0782 51.5449
CA -11.7645 3.80486 55.8243
CA 3.9139 -31.2019 56.6072
CA -24.1051 -15.6553 68.6103
CA 4.87798 -18.7609 88.5871
CA 1.18604 -21.3166 60.3545
CA -18.8738 -24.723 60.5316
CA 0.743029 -10.6346 63.1212
CA 12.6785 -19.031 68.9345
CA -15.4384 -7.32853 63.5577
CA 5.14607 -15.1719 62.1439
CA -19.1328 -21.9059 56.9833
CA -26.7266 -28.4101 32.8671
CA -2.95823 -19.8934 38.1477
CA -10.1081 -20.3743 43.1027
CA -13.2017 -23.4145 45.9181
CA 1.92308 -16.2618 53.8038
CA 5.96686 -14.3748 85.1917
CA -3.91598 -5.54863 57.3488
CA 6.20003 -26.2454 63.1311
CA -30.6894 -20.8258 68.0418
CA -6.88422 -9.42748 70.1409
CA 2.27767 7.20478 73.5539
CA -22.1707 -27.7052 39.7672
CA 2.90974 -28.5862 63.5214
CA -9.22395 0.394323 59.9569
CA -25.8402 -4.95409 57.2287
CA -11.4446 -18.4732 51.4357
CA -23.2952 -21.6717 71.9762
CA -4.74407 -27.972 66.7352
CA -0.930861 -22.2123 21.3679
CA -19.6627 -23.7399 46.0886
CA 0.380421 -17.6946 29.078
CA -17.2717 -33.4358 63.6957
CA -20.4781 -4.12103 60.6178
CA -19.8438 -26.5173 32.7893
CA -24.0425 -13.083 77.9602
CA -5.63298 -36.0972 81.2596
CA -16.7524 -25.1259 61.9481
CA -1.11954 2.33193 45.6331
CA -11.1826 -20.054 49.2028
CA -10.9307 -14.2165 57.1737
CA -22.7137 -9.66674 48.0266
CA 6.27023 -16.6439 61.929
CA -21.3809 -9.13022 45.4225
CA -4.31457 -3.41616 44.2476
CA -2.07222 -30.5602 70.7757
CA 10.5524 -23.7204 41.122
CA -7.97028 -18.9348 58.2427
CA -22.8613 -23.6968 74.4513
CA -5.81336 -27.1929 69.4593
CA -17.3053 -9.77243 51.4976
CA 1.65582 -22.2457 81.5234
CA 16.074 -7.11161 66.8793
CA 1.20141 -23.4687 77.6207
CA -6.34526 11.0222 45.1106
CA -0.595643 -21.7715 52.4383
CA -24.1361 -15.5297 63.6979
CA -10.5047 0.675929 52.8375
CA -17.1806 -27.1627 36.5914
CA -6.79984 -11.5879 34.914
CA -17.5653 -23.5563 77.0322
CA -17.4408 -3.40791 70.1445
CA 14.945 -16.15 66.799
CA -13.5085 -23.3141 36.5491
CA -21.5823 -16.2017 62.2608
CA -6.03504 -21.3884 65.5577
CA 12.4474 -11.057 68.3938
CA -21.8183 -23.7315 28.7653
CA 13.428 -20.2835 38.8537
CA -5.83804 -21.7481 41.6796
CA -17.1964 -33.9616 76.1005
CA 5.05877 9.28305 47.3277
CA -35.9194 -25.0411 46.6762
CA 13.649 -19.1983 37.1997
CA 2.94309 -34.1899 37.4278
CA 0.832783 -24.6425 46.3518
CA -14.8004 -22.3135 34.6815
CA 1.66846 -29.3722 59.4379
CA 8.64765 -10.4152 25.9605
CA -21.7668 -25.57 31.0653
CA -9.64782 -16.8182 23.6479
CA 14.2994 -21.0529 64.4259
CA -12.3745 -25.9617 41.3495
CA -7.25425 -16.6351 60.8832
CA 0.656717 -33.0014 77.276
CA -9.21337 -15.6753 69.0057
CA -0.307351 -16.7626 94.2249
CA -22.3275 -19.6209 54.7113
CA 5.7061 -40.7138 46.4013
CA -15.5561 -23.4474 61.1474
CA 8.14271 -15.2503 28.1301
CA -14.1105 -12.1498 32.54
CA -16.6927 -21.995 64.214
CA -2.76766 -19.4997 17.3586
CA -12.3729 -7.53495 50.7567
CA -38.8211 -24.4713 53.2489
CA -2.72343 -25.8433 14.7343
CA 0.0688142 -34.1486 58.0277
CA -4.21787 -32.7825 62.4198
CA 0.717681 -14.3425 30.9626
CA 3.80533 -41.5891 69.1691
CA -20.1671 -32.9335 44.4449
CA -34.5038 -19.1004 60.3972
CA -6.35498 -42.5513 72.6865
CA -21.7009 -10.527 50.2418
CA -24.8791 -28.1746 62.371
CA -36.081 -27.4735 52.4053
CA 4.88943 -16.3143 29.3217
CA 8.59123 -25.9426 62.231
CA -0.36669 -10.8242 64.5605
CA -18.3065 0.891968 56.3681
CA -15.7296 -14.981 30.3625
CA 5.03195 -37.0833 57.3996
CA -8.2864 -2.57514 51.8786
CA -23.3583 -19.83 46.9094
CA 2.64842 -13.1622 31.8588
CA -5.8997 -29.5113 69.5862
CA -31.1136 -19.9953 64.1479
CA 2.4661 -10.8971 86.2361
CA -12.0985 -16.0653 55.3724
CA -13.6133 -31.3472 56.4857
CA -1.5801 -21.542 22.9217
CA -8.02088 -8.22148 39.8237
CA -18.8777 1.91519 60.3668
CA -7.3973 -6.86273 60.3191
CA -6.47873 -22.9505 31.0608
CA -16.0575 -13.2521 54.8117
CA -20.9709 -27.0209 44.1373
CA 6.60793 -14.68 29.262
CA -15.1902 -38.4044 75.5614
CA -11.302 -19.2909 67.1283
CA 9.77548 -2.23435 72.0306
CA -19.0598 -5.11678 74.2027
CA -22.6049 -8.62945 67.6673
CA -17.7009 -21.8371 59.3784
CA -1.42545 -10.0466 88.0064
CA -4.97772 -19.0992 31.3655
CA -8.39643 -34.6571 36.7628
CA -14.5953 -33.5812 77.2861
CA 6.77992 -16.4018 85.4526
CA 0.294987 -24.5852 63.4186
CA -13.51 -33.2279 58.3437
CA -1.75806 -16.364 31.3218
CA 1.78004 -35.2695 77.6154
CA 17.5594 -18.2826 45.5533
CA 12.4659 -15.8912 69.152
CA -17.4591 -35.688 44.9685
CA 8.21406 -16.9722 61.4771
CA -14.0082 -15.7847 66.9564
CA -19.6207 -40.0952 45.0941
CA 2.65061 1.34292 48.8562
CA -0.979571 -31.9378 76.3828
CA -0.458671 -35.3963 81.102
CA -12.6199 -10.9359 54.8597
CA -4.16116 -28.4398 63.4571
CA -10.8563 5.82238 53.0554
CA 13.8946 -18.588 39.4792
CA 0.627447 -20.2807 86.8173
CA -4.02359 -21.458 44.5267
CA -21.1721 -16.0857 75.084
CA 4.91536 -16.9501 27.3734
CA -12.9131 -28.116 58.9628
CA -9.53048 -10.1615 55.8614
CA -22.1616 -1.74486 52.3455
CA -16.0102 -24.7284 31.4367
CA 5.65745 6.44974 68.8934
CA -4.35941 -21.7899 16.1832
CA 4.1811 -24.4246 18.6707
CA 1.60225 -5.48602 50.3086
CA -11.9522 -23.5926 44.212
CA 9.78763 -23.0183 65.3075
CA -12.6056 -4.55015 49.8301
CA 6.54339 -33.8474 71.5192
CA -12.1095 -30.4706 53.7586
CA -17.5043 -36.4453 31.8676
CA 12.1836 -32.946 55.5721
CA -38.3419 -21.4072 57.7682
CA 7.99741 -24.4602 67.7517
CA -8.02285 -9.59175 57.1004
CA -1.86374 4.37108 51.6236
CA 11.4035 -28.557 54.526
CA -14.094 -18.6707 64.5537
CA -15.9074 -20.2175 55.0221
CA -8.26929 -13.9164 26.3374
CA 10.8286 -31.3613 40.4868
CA -20.0088 -15.1288 61.1621
CA -2.10145 -19.5499 9.21221
CA -17.5607 -34.3629 30.4674
CA -5.52351 -32.8695 63.6638
CA -18.2941 -26.0389 74.59
CA 3.24668 3.93851 49.3886
CA -15.326 -25.8509 73.2384
CA 0.074143 -13.4585 94.943
CA 5.84998 -17.8564 41.4044
CA -1.51568 -20.6556 76.8874
CA -8.25158 -16.9847 57.1467
CA -6.04815 -22.5336 53.4877
CA -1.07317 -31.4398 73.3107
CA -1.8092 -12.8107 96.5243
CA 3.00811 -34.2767 61.5355
CA -20.1819 -36.5946 40.8933
CA -19.6438 -11.3494 50.1964
CA 0.811164 -30.3085 36.1802
CA 1.64822 -25.3757 14.6952
CA -15.6888 -28.9335 29.9017
CA 4.62336 -35.3368 71.2225
CA -5.01605 -19.7886 19.9424
CA -17.1997 -31.6167 65.8192
CA 10.9136 -35.2608 57.8966
CA 4.61665 -42.7699 67.9247
CA 9.46633 -3.46792 70.4282
CA 6.898 -22.6286 17.3039
CA 4.57699 -0.212722 51.6066
CA 9.0455 2.08477 75.2784
CA 9.03303 -20.0636 43.0082
CA -3.10779 -34.4723 62.464
CA -18.0759 -30.8117 30.3307
CA -11.2334 -31.5563 55.8328
CA 17.4602 -19.8212 46.5204
CA -6.16702 0.316199 43.7213
CA -15.0998 -29.4554 48.2577
CA -17.6285 -30.3025 62.3303
CA -6.41245 -39.208 80.2938
CA 1.08783 1.36238 73.5016
CA 0.0825033 10.3466 77.6547
CA -12.3324 -3.39961 54.3628
CA 0.672089 -20.3204 62.9276
CA 10.9971 -35.0464 44.059
CA -2.96355 -21.6208 38.8385
CA -27.7687 -19.0276 62.4183
CA 0.399597 -23.7461 11.9851
CA -14.4818 -5.24599 57.0405
CA 9.50858 -0.247237 52.691
CA -18.1902 -21.0798 76.8849
CA -17.4126 -10.9343 70.233
CA 12.4262 -27.8587 65.3674
CA -21.0955 -28.2843 37.8563
CA -24.6882 -23.5503 62.1052
CA -3.15618 -31.2942 84.6964
CA -2.00608 -11.3064 68.8002
CA -16.9168 -6.76547 71.4472
CA -5.25993 -1.8288 56.6406
CA -8.15762 -18.2047 30.1549
CA -8.17233 -14.3871 72.843
CA -5.74358 -19.6452 36.3525
CA -10.2742 -33.36 67.7013
CA -22.8085 -7.62922 60.7741
CA -3.00568 -30.8794 73.2619
CA 11.0604 -20.2295 44.0203
CA -23.138 -10.3268 58.6749
CA 17.5895 -18.755 41.5239
CA -0.464087 -10.1312 84.2019
CA -14.7233 -17.9057 73.242
CA 3.73732 8.58136 48.8901
CA -3.98728 -19.3927 13.2989
CA -2.58745 -38.3977 38.5255
CA -15.3848 -24.2129 59.4363
CA -26.0115 -28.6617 60.3439
CA -4.95226 -30.0482 72.8872
CA 4.19774 -18.0833 59.1437
CA -15.2649 -8.80828 34.4528
CA -23.817 -5.20045 60.3375
CA -4.02933 -3.05591 59.071
CA 1.78431 -17.7884 81.1189
CA -13.8172 -18.5823 75.3581
CA -3.66377 -40.2619 66.8891
CA -7.09401 -21.5946 48.9609
CA -15.5094 -35.066 60.3237
CA 9.47059 -26.3029 66.1673
CA -4.77145 11.6353 47.3565
CA -4.06563 -6.8676 40.2219
CA -15.1356 -18.0017 32.8606
CA -10.6652 -15.496 73.9506
CA -20.4598 -26.8518 29.6911
CA 12.1212 -26.3871 42.3194
CA 0.777952 -11.5584 86.8318
CA -11.8351 -31.9044 44.8764
CA -8.34828 -16.8415 18.7443
CA -24.2111 -4.8346 56.4304
CA -21.058 -29.7208 27.0605
CA 0.907027 -11.5732 82.2213
CA -18.7922 -40.467 73.2206
CA -13.7062 -32.7378 48.1446
CA -5.24867 4.22894 56.0183
CA 14.6871 -36.5614 52.0041
CA 1.65913 -38.4133 67.5521
CA -17.5105 -38.4205 33.2927
CA -5.92479 -15.2615 46.1113
CA -26.553 -18.1771 69.2714
CA -15.4309 -26.2875 36.7012
CA -15.4318 -27.4389 49.5969
CA -7.51283 -18.4805 45.8913
CA -15.1579 -23.2026 63.2326
CA -3.79811 -24.1987 66.5609
CA -25.6788 -20.3405 67.5549
CA -2.63004 -19.4741 23.8052
CA -11.1805 -8.46559 48.7618
CA -15.8399 -14.3894 56.6406
CA 10.7778 -9.59539 69.3096
CA 2.46517 1.00691 52.214
CA -37.7645 -27.6441 50.8047
CA 6.77371 -35.3745 50.7611
CA 3.17145 5.28277 51.556
CA -9.83223 -12.2224 31.5982
CA 13.617 -8.34114 67.9081
CA -13.3395 -20.7964 70.6248
CA -13.0452 -14.6849 54.0503
CA -15.0295 -3.25098 69.7149
CA -18.2972 -15.6482 69.7937
CA -4.70472 -14.1007 94.334
CA -18.1167 -12.403 66.8335
CA -6.62989 -4.89337 42.847
CA 2.45367 2.91833 44.2001
CA -3.51324 -42.1163 82.4862
CA 7.74187 2.99029 77.8335
CA -7.39242 -19.6128 43.3828
CA 1.13896 -33.4067 84.8914
CA 5.59859 3.94016 72.6592
CA 1.73438 1.7178 71.1422
CA -5.30075 -21.1602 14.2493
CA -7.18987 -0.204231 56.3449
CA -3.21665 -13.9454 99.1357
CA -17.8953 5.65547 60.4154
CA -27.7289 -16.5162 55.7814
CA 9.1018 -28.3161 49.9953
CA -6.57542 -28.6538 35.399
CA 3.6627 -22.9917 42.4446
CA -12.9852 -38.542 75.0111
CA -6.63728 -4.00354 44.7639
CA 5.33509 -30.2005 41.0011
CA -9.59064 -33.4137 69.4776
CA 15.9089 -16.234 37.9215
CA -3.81208 -11.3074 69.2138
CA -7.80309 -0.973099 43.7342
CA 5.1133 -2.62412 69.638
CA -6.58687 -15.3895 27.9263
CA 0.758391 -29.0143 16.1302
CA -8.92387 -9.46713 66.3279
CA -18.9652 -19.0306 55.8741
CA -16.6902 -13.7097 71.481
CA -10.1055 -12.8186 43.1922
CA 0.819338 -11.0374 94.7919
CA 2.2836 -0.731628 48.1417
CA -22.5611 -8.51316 71.28
CA 3.05896 -16.2408 63.4227
CA -9.75499 -12.7801 21.861
CA -16.6513 -26.9609 63.8131
CA -10.0241 -30.1895 39.9705
CA -14.8636 4.85011 60.742
CA 1.14743 -35.5751 64.0097
CA -21.1616 -23.1792 52.506
CA 16.1789 -9.01149 66.7205
CA 13.3138 -29.2373 54.1503
CA -26.8213 -19.8607 72.7043
CA 3.62211 -18.7465 63.2974
CA -5.08773 -32.6441 82.6409
CA -8.85876 -30.9368 56.2801
CA -21.6778 -25.5955 70.8585
CA -25.5957 -19.928 70.5723
CA -2.95691 -11.8612 83.1786
CA -9.53914 -24.759 51.917
CA -26.8077 -29.9621 63.6636
CA 2.1367 -14.0075 59.1738
CA -8.8203 1.76372 47.1581
CA -12.8284 -15.8898 35.386
CA 9.85148 -33.3111 51.3861
CA -9.38141 -18.7926 51.2383
CA -32.8164 -15.8769 62.6429
CA -3.57536 2.41851 46.9353
CA -24.6084 -25.57 65.9949
CA -6.48672 12.3696 47.3689
CA -37.8235 -26.5119 49.0427
CA -15.9668 -28.7668 64.2807
CA -23.6683 -19.2977 71.799
CA -14.2695 -22.1915 64.5233
CA -2.21858 -31.1557 78.1604
CA 2.40916 -15.7626 29.8905
CA -16.6113 -13.5583 50.9301
CA -20.959 -29.5782 31.8102
CA -14.1723 -12.5097 51.9952
CA -12.7411 2.52159 60.4107
CA -0.828576 -8.4923 62.8829
CA -1.15999 -16.4703 91.4304
CA -16.8151 -17.9532 64.053
CA -25.9144 -21.8254 57.6485
CA -23.5489 -2.62713 62.488
CA -1.22144 -26.361 65.6456
CA -6.76862 -36.3046 68.3309
CA -11.1275 -7.11185 33.756
CA -15.2256 -31.3055 52.6927
CA -7.80717 15.9361 47.715
CA -6.7616 -41.1318 80.3675
CA -32.6485 -23.7484 48.0658
CA 10.0744 -5.65284 67.6425
CA -22.5647 -28.558 30.2829
CA -17.8092 -38.9933 71.6914
CA -6.16222 0.197087 47.1362
CA -18.5254 -16.4452 72.0286
CA 16.3643 -14.2126 69.0657
CA -13.3164 -34.3986 46.3885
CA 2.53062 -34.5656 68.7885
CA 2.57127 -38.2508 63.9597
CA -0.0152283 -37.3711 56.4803
CA -21.6143 -20.8261 45.3553
CA -7.81105 -39.3125 75.6096
CA -10.2158 -15.2387 33.2868
CA -6.59996 -27.4411 57.1588
CA 15.7808 -20.2404 43.3587
CA -29.8892 -18.6743 58.5277
CA -3.26379 -22.6782 61.3965
CA 2.51807 -6.67778 59.9484
CA -25.672 -19.0566 59.2251
CA 1.99899 -27.0404 44.4887
CA 17.2549 -16.1273 64.7009
CA 8.86704 -37.6331 44.6722
CA -11.7969 -29.8919 44.7457
CA 6.10874 -23.1224 57.1826
CA -1.53684 -22.2962 40.8842
CA -21.7086 -7.94727 58.243
CA -14.6052 -27.7077 61.887
CA -25.782 -2.30338 50.4528
CA 8.28246 0.751242 55.8038
CA 0.635978 -17.2998 78.9475
CA -10.8275 -11.7087 36.5255
CA -15.4992 -24.466 77.5034
CA 1.30265 -20.3587 42.09
CA -6.87867 -28.3918 37.1979
CA 0.506339 -23.1359 17.5446
CA -21.4304 -25.5457 61.8089
CA 1.91032 -0.0305702 72.3386
CA -4.82032 -4.7759 55.0509
CA -5.5802 -36.03 35.7163
CA -20.0932 -5.1789 50.3056
CA -2.74794 -19.3577 21.2345
CA -17.5576 -11.5725 68.4686
CA -0.358532 4.92435 75.1009
CA -12.4829 -8.63161 39.1473
CA -12.0653 -27.2907 52.5119
CA -0.247035 -30.9548 41.2976
CA -30.1575 -18.9497 68.3589
CA -0.0608474 -37.9123 77.0979
CA 0.396172 -23.8883 22.6554
CA -8.43353 0.43519 51.2477
CA 0.805163 -12.2713 54.2121
CA 9.25058 -28.6494 38.8873
CA -5.92214 -11.5376 65.218
CA 0.875257 -27.5378 40.0771
CA -12.4637 -9.67746 50.0399
CA -1.3343 -25.9003 76.7124
CA -13.9433 -7.87548 59.3267
CA -2.25385 -28.4869 61.1524
CA -4.57358 -28.9335 37.8833
CA 4.60705 -34.3981 79.0086
CA -11.1559 -19.5094 58.2612
CA -23.623 -28.9269 63.4761
CA -1.79374 7.30956 49.0339
CA 5.86798 -31.636 51.8858
CA 3.16433 -23.4183 39.0521
CA -12.8952 -32.6843 66.214
CA -14.131 -27.224 74.3563
CA 8.77249 -35.108 59.7888
CA 7.55912 -33.7792 52.7699
CA -1.91856 -14.9401 84.7519
CA 10.0403 -8.22687 70.4043
CA -5.39805 -42.628 80.9247
CA -25.0316 -10.5025 56.2048
CA -16.9814 -32.3615 58.3459
CA -6.90944 -19.7041 39.6543
CA -1.77501 -22.8548 24.625
CA -20.0684 -23.2436 76.3073
CA 8.25117 -28.7428 65.533
CA -6.61633 -34.4912 66.1342
CA 10.5229 -29.7265 55.9534
CA -15.6014 -11.1212 72.8044
CA 6.76458 -30.3324 47.3823
CA -18.1472 -26.3717 61.8732
CA 9.96506 -29.7609 53.3483
CA 1.75775 -27.5642 48.1344
CA -2.18116 -10.0918 64.4649
CA -0.0137639 -20.1914 56.1469
CA -1.24669 -16.0158 89.4693
CA -6.29329 -11.9254 19.7958
CA 0.441984 -2.22746 48.668
CA 2.04929 -14.8208 81.1587
