489

CA -19.2663 3.40848 55.4858
CA -23.7578 -4.09574 54.4006
CA -8.18755 -34.2507 55.9367
CA 12.017 -28.2573 70.1183
CA -6.50904 -21.0782 51.5449
CA -11.7645 3.80486 55.8243
CA 4.21916 -26.7404 61.2981
CA 4.69719 6.36597 75.8619
CA 4.87798 -18.7609 88.5871
CA -0.794057 -24.6496 21.1755
CA 8.51257 -31.4092 39.5166
CA 0.743029 -10.6346 63.1212
CA 12.6785 -19.031 68.9345
CA -9.15269 -15.759 44.6059
CA -1.44995 -13.756 53.5779
CA 12.4816 -23.87 47.9011
CA -28.1895 -3.54305 53.8408
CA -13.9147 -4.54117 60.4805
CA -10.1081 -20.3743 43.1027
CA -13.2017 -23.4145 45.9181
CA -14.1677 -18.842 60.7328
CA 5.96686 -14.3748 85.1917
CA -2.55362 5.98854 75.8008
CA 6.20003 -26.2454 63.1311
CA 5.19071 -0.126897 69.2179
CA -23.4993 -14.9297 48.4241
CA 1.30087 -0.604041 54.2806
CA -22.1707 -27.7052 39.7672
CA -25.6915 -22.1259 63.6347
CA 3.83342 8.35743 76.2684
CA -20.9865 -31.2437 44.7876
CA -12.5935 -21.5512 49.7697
CA -23.2952 -21.6717 71.9762
CA -23.5939 -10.4592 66.888
CA -9.54382 -30.3092 43.9828
CA 1.2687 -40.0637 60.3806
CA 5.44871 3.25584 48.3555
CA -24.6138 -13.7743 46.6675
CA -20.4781 -4.12103 60.6178
CA -19.8438 -26.5173 32.7893
CA -1.56742 -13.1009 83.4612
CA -5.63298 -36.0972 81.2596
CA -7.17841 -32.9666 67.7594
CA -1.11954 2.33193 45.6331
CA -11.1826 -20.054 49.2028
CA -10.9307 -14.2165 57.1737
CA -22.7137 -9.66674 48.0266
CA 1.70615 -30.9001 82.6829
CA -8.8912 -38.6186 78.1
CA -22.2915 -6.10873 67.4696
CA -2.07222 -30.5602 70.7757
CA 10.5524 -23.7204 41.122
CA 9.00936 -26.5602 70.0635
CA -22.8613 -23.6968 74.4513
CA -5.10184 -23.1017 59.9638
CA -10.9928 -36.8612 67.2277
CA 1.65582 -22.2457 81.5234
CA 5.12269 -19.0739 52.8732
CA 1.20141 -23.4687 77.6207
CA -35.0992 -21.2643 63.6873
CA -15.0918 -14.7022 57.1348
CA -24.1361 -15.5297 63.6979
CA -18.1455 -21.8816 74.491
CA -17.1806 -27.1627 36.5914
CA 14.8194 -18.9997 44.5093
CA -17.5653 -23.5563 77.0322
CA -9.24715 -32.0166 71.51
CA 10.7059 -36.7763 60.9457
CA -2.56553 -12.9267 86.6869
CA -7.52945 -16.9342 38.2005
CA -6.03504 -21.3884 65.5577
CA 12.4474 -11.057 68.3938
CA -21.8183 -23.7315 28.7653
CA -16.344 -37.7497 71.4381
CA -5.83804 -21.7481 41.6796
CA -17.1964 -33.9616 76.1005
CA 5.05877 9.28305 47.3277
CA -13.8213 -7.37372 33.4497
CA 11.229 -35.05 60.5516
CA -0.0340894 -31.257 41.1559
CA -11.8342 -28.6961 56.15
CA -1.98676 -1.7398 59.1345
CA -7.46455 -16.1455 34.0863
CA 3.32348 -4.48175 58.5874
CA 0.89312 -29.7519 47.006
CA -9.64782 -16.8182 23.6479
CA -14.7048 -40.1137 32.5211
CA -12.3745 -25.9617 41.3495
CA -20.7951 -26.6576 64.5117
CA -10.1284 -25.2482 43.9878
CA -9.21337 -15.6753 69.0057
CA 17.8367 -16.5982 41.6533
CA 16.9073 -13.6936 65.546
CA 5.7061 -40.7138 46.4013
CA 3.46772 -30.698 38.0937
CA -5.01957 -37.2291 37.1509
CA -14.1105 -12.1498 32.54
CA 3.89077 5.50469 74.1937
CA -2.76766 -19.4997 17.3586
CA -9.47236 -33.3443 72.9947
CA -2.5333 -27.7261 73.5381
CA -12.6522 -27.7157 54.4764
CA -3.07492 -18.7685 29.4475
CA -12.7882 -31.8615 65.2314
CA -23.2685 -1.25397 54.4102
CA 3.80533 -41.5891 69.1691
CA -20.1671 -32.9335 44.4449
CA -34.5038 -19.1004 60.3972
CA -1.12317 -23.8692 59.1195
CA -16.8581 -32.1963 57.4821
CA -37.2116 -24.9675 54.8919
CA -5.17578 -40.794 81.3498
CA -15.343 -25.0927 71.0762
CA 8.59123 -25.9426 62.231
CA 15.5777 -23.3611 47.823
CA 16.3068 -16.0709 44.6734
CA 11.9472 -2.47417 68.0915
CA 8.32902 9.21105 77.7443
CA -5.99836 -33.8048 69.5402
CA -23.3583 -19.83 46.9094
CA 2.64842 -13.1622 31.8588
CA -13.9664 -24.882 34.341
CA -31.1136 -19.9953 64.1479
CA 0.9604 -17.3957 52.9546
CA -7.11244 -25.9731 62.7436
CA -13.6133 -31.3472 56.4857
CA -20.3596 -7.70103 56.6964
CA -8.94824 -11.6531 67.629
CA -18.7589 -13.9355 74.9633
CA -7.3973 -6.86273 60.3191
CA 2.56988 -31.1675 85.3406
CA -10.5226 -25.9892 39.0018
CA -19.6843 -6.32108 64.2198
CA 6.60793 -14.68 29.262
CA -8.85816 -12.8266 28.1833
CA 14.0013 -18.7906 33.3082
CA 9.77548 -2.23435 72.0306
CA -19.0598 -5.11678 74.2027
CA -22.6049 -8.62945 67.6673
CA -6.98871 -40.0557 82.6779
CA -1.42545 -10.0466 88.0064
CA -4.97772 -19.0992 31.3655
CA -8.39643 -34.6571 36.7628
CA -14.5953 -33.5812 77.2861
CA 6.77992 -16.4018 85.4526
CA 8.47927 -34.6215 71.5398
CA -13.51 -33.2279 58.3437
CA -1.75806 -16.364 31.3218
CA 1.78004 -35.2695 77.6154
CA 17.5594 -18.2826 45.5533
CA 0.473198 -12.744 65.5389
CA -17.4591 -35.688 44.9685
CA -10.1671 -18.0117 32.0792
CA -14.0082 -15.7847 66.9564
CA -19.6207 -40.0952 45.0941
CA 3.26115 8.61287 50.6671
CA -0.979571 -31.9378 76.3828
CA -1.04818 -12.9054 68.3462
CA -7.55043 -17.9045 35.6391
CA -17.3248 -6.54799 63.6355
CA -10.8563 5.82238 53.0554
CA 9.56672 -22.2313 20.8635
CA -15.0918 -31.6042 54.6701
CA -3.78746 -38.4177 41.3323
CA -21.1721 -16.0857 75.084
CA -9.58176 -12.2641 62.2916
CA -34.7321 -23.272 54.8392
CA -8.94527 -15.7022 53.9419
CA -22.1616 -1.74486 52.3455
CA -19.8588 -21.8591 49.2505
CA 3.77748 -32.3485 76.3653
CA -4.35941 -21.7899 16.1832
CA 4.1811 -24.4246 18.6707
CA -16.9428 -24.1959 47.245
CA -38.9151 -23.4386 50.3894
CA -7.87748 4.77353 53.7484
CA 9.55998 -33.7457 62.0962
CA 15.5413 -18.9768 35.1534
CA -13.465 -24.731 65.345
CA -14.139 -35.9961 33.9786
CA -16.7743 -32.0814 64.073
CA -38.3419 -21.4072 57.7682
CA 7.99741 -24.4602 67.7517
CA -9.13357 -26.4001 73.2482
CA -9.40191 -33.2102 57.6186
CA -18.8743 -25.6188 47.2257
CA -14.3943 -33.2961 60.3008
CA -3.53244 -12.8023 59.8611
CA 13.0219 -20.8428 50.6509
CA -25.1808 -8.79858 57.2581
CA -20.0088 -15.1288 61.1621
CA -2.10145 -19.5499 9.21221
CA -17.5607 -34.3629 30.4674
CA -8.95344 -24.5007 71.3542
CA -17.4051 -27.5421 45.0869
CA 3.24668 3.93851 49.3886
CA 13.9866 -20.6365 40.5311
CA 0.20498 -1.25018 51.7133
CA 5.84998 -17.8564 41.4044
CA -5.37775 -30.6619 37.5518
CA -17.5036 -10.5509 52.5571
CA -14.0106 -27.5744 32.079
CA 6.6668 -35.8055 51.2027
CA -17.1124 -16.7339 50.1924
CA 0.316451 -35.6998 67.2465
CA 5.69297 -34.3203 73.9301
CA -14.988 -14.9122 32.725
CA 0.811164 -30.3085 36.1802
CA -1.22145 -38.6953 63.0142
CA 3.33028 -26.7756 76.7951
CA -13.011 -22.82 70.725
CA -5.01605 -19.7886 19.9424
CA -17.1997 -31.6167 65.8192
CA -19.5696 -36.2945 72.6092
CA -5.32438 -17.8201 39.9354
CA 9.46633 -3.46792 70.4282
CA 6.898 -22.6286 17.3039
CA 4.57699 -0.212722 51.6066
CA -22.3986 -9.45302 65.8152
CA 9.03303 -20.0636 43.0082
CA -2.84367 -17.5489 86.1763
CA -24.6245 -11.6496 64.3096
CA -12.2261 -26.1833 66.7561
CA 13.1426 -24.0104 70.556
CA -17.9978 -34.7221 73.9151
CA -17.011 -22.4577 64.4997
CA 17.278 -14.0237 61.4634
CA 10.714 -33.2732 55.1125
CA -6.91103 -41.8152 72.6899
CA 5.20713 -32.8424 57.6804
CA -12.2766 -25.5114 72.1276
CA -8.98519 -29.78 69.5175
CA 10.9971 -35.0464 44.059
CA -7.24072 -24.7569 65.7029
CA -27.7687 -19.0276 62.4183
CA 0.399597 -23.7461 11.9851
CA -14.4818 -5.24599 57.0405
CA 9.50858 -0.247237 52.691
CA -18.1902 -21.0798 76.8849
CA -10.2104 -28.3895 42.8567
CA -19.8368 -35.4849 59.6197
CA -20.7683 -42.1971 45.913
CA -24.6882 -23.5503 62.1052
CA 12.9273 0.692036 66.658
CA 3.25535 -16.4363 80.2651
CA 1.92271 -22.7304 67.7447
CA -19.9016 -29.5505 44.7926
CA -8.15762 -18.2047 30.1549
CA -16.5177 2.68194 56.2874
CA -5.74358 -19.6452 36.3525
CA -9.69867 -13.55 55.6063
CA 3.71589 -1.63476 72.1183
CA 6.68882 -33.2875 55.8492
CA 4.77521 -30.141 51.2347
CA -34.6012 -27.4343 47.2884
CA -8.8388 -10.0956 45.9468
CA -7.27531 -37.6477 84.0366
CA 12.9592 -26.4495 44.038
CA 3.73732 8.58136 48.8901
CA -3.98728 -19.3927 13.2989
CA 9.28499 -21.5141 41.7411
CA -15.3848 -24.2129 59.4363
CA -26.0115 -28.6617 60.3439
CA 14.7861 -15.7613 46.1175
CA 15.1445 -12.8877 61.6201
CA -15.2649 -8.80828 34.4528
CA -11.6322 -23.407 76.8982
CA -4.02933 -3.05591 59.071
CA 1.78431 -17.7884 81.1189
CA 5.51945 -34.1701 64.4681
CA -3.66377 -40.2619 66.8891
CA -7.09401 -21.5946 48.9609
CA -1.16842 -24.7652 11.1135
CA -19.3543 -31.8968 53.2632
CA -4.77145 11.6353 47.3565
CA -0.935511 0.284513 41.1393
CA -23.2469 -27.9819 62.8728
CA -10.6652 -15.496 73.9506
CA 6.55413 7.1862 76.1785
CA -5.98257 -24.8873 72.5091
CA 7.03119 -30.0147 64.9349
CA -11.8351 -31.9044 44.8764
CA -8.34828 -16.8415 18.7443
CA -4.39412 -9.28434 69.6555
CA -8.34224 -34.5987 62.6
CA 0.907027 -11.5732 82.2213
CA -15.7963 -19.958 66.0277
CA -20.5284 -31.3387 30.6774
CA 1.31617 -20.7146 13.0387
CA -11.9458 -37.9267 80.8008
CA 1.65913 -38.4133 67.5521
CA -17.5105 -38.4205 33.2927
CA 1.39585 -11.407 84.2259
CA -14.555 4.84288 54.3258
CA -15.4309 -26.2875 36.7012
CA -9.99295 7.72947 53.4321
CA -7.51283 -18.4805 45.8913
CA -15.1579 -23.2026 63.2326
CA -10.2213 -42.0642 78.3773
CA -25.6788 -20.3405 67.5549
CA -16.7191 -31.6148 29.0325
CA -11.1805 -8.46559 48.7618
CA 0.30522 -32.6184 37.0081
CA 6.95936 -0.257798 72.9685
CA 9.14358 -34.3704 76.539
CA 9.75622 -31.2089 50.2187
CA 10.9401 -6.42784 70.7674
CA 4.03532 -29.1819 60.7991
CA -7.05809 -13.1378 71.5573
CA -16.955 -5.44799 67.8741
CA 3.75087 -8.17491 60.4728
CA -8.76107 -16.5159 35.6294
CA -36.0811 -23.9819 48.1805
CA -18.2972 -15.6482 69.7937
CA -4.70472 -14.1007 94.334
CA -14.2244 -0.0696358 59.3674
CA -1.02798 -22.9571 9.33186
CA 16.2351 -6.85442 70.8447
CA -3.51324 -42.1163 82.4862
CA -2.6609 -16.1835 52.3818
CA -22.9434 -17.7051 63.4183
CA -5.81007 -40.9891 78.224
CA 5.59859 3.94016 72.6592
CA -8.2594 -36.1771 70.8356
CA -15.0903 -23.5102 44.4312
CA -14.2076 -38.807 72.7587
CA -4.35589 -13.391 57.8672
CA -4.12532 -37.7188 33.3902
CA 1.65315 -33.8925 81.3233
CA 9.1018 -28.3161 49.9953
CA -5.45989 -17.2548 28.9121
CA -12.4211 -25.9957 35.2692
CA -12.9852 -38.542 75.0111
CA -18.6595 -9.49755 63.6037
CA 5.33509 -30.2005 41.0011
CA -9.59064 -33.4137 69.4776
CA 0.456565 -17.3227 79.2581
CA -3.81208 -11.3074 69.2138
CA 18.8555 -23.6952 52.261
CA -14.4155 -10.8285 66.6024
CA -6.58687 -15.3895 27.9263
CA -15.4512 -14.8606 77.3158
CA -9.14866 -17.2979 43.5762
CA 10.3136 -27.1587 63.2182
CA -16.6902 -13.7097 71.481
CA -10.1055 -12.8186 43.1922
CA 0.819338 -11.0374 94.7919
CA 2.2836 -0.731628 48.1417
CA -22.5611 -8.51316 71.28
CA 3.05896 -16.2408 63.4227
CA 2.64639 7.14109 75.42
CA -16.6513 -26.9609 63.8131
CA -10.0241 -30.1895 39.9705
CA -14.8636 4.85011 60.742
CA -17.4278 -30.0757 53.5089
CA -6.32949 -23.1722 74.507
CA 16.1789 -9.01149 66.7205
CA 13.3138 -29.2373 54.1503
CA -26.8213 -19.8607 72.7043
CA -4.87691 -11.8957 23.4823
CA -26.3822 -17.594 62.5135
CA -8.85876 -30.9368 56.2801
CA -21.6778 -25.5955 70.8585
CA -2.41558 -32.432 72.2401
CA -2.95691 -11.8612 83.1786
CA -9.48486 -40.4398 76.7547
CA -30.3274 -1.17326 57.0338
CA -0.202604 -26.9243 39.6482
CA -25.4667 -28.1905 64.5128
CA -5.50529 -13.8222 35.9915
CA -12.9891 -14.0849 33.0075
CA -9.38141 -18.7926 51.2383
CA -17.5873 -25.9907 66.9447
CA -7.50439 -38.9897 41.1786
CA -24.6084 -25.57 65.9949
CA 14.2834 -22.378 52.2444
CA -37.8235 -26.5119 49.0427
CA -15.9668 -28.7668 64.2807
CA 14.5217 -21.071 45.2941
CA -14.2695 -22.1915 64.5233
CA -14.6995 0.50509 56.4931
CA 6.41528 -19.001 42.9266
CA -16.6113 -13.5583 50.9301
CA 5.2308 -32.4077 69.2967
CA -14.1723 -12.5097 51.9952
CA -13.2277 -18.5368 68.0496
CA -20.7625 -26.9517 41.8221
CA 3.11418 -5.77877 62.7673
CA -16.8151 -17.9532 64.053
CA -15.9891 -6.46579 56.8323
CA 2.91391 -22.6384 45.5419
CA 1.08651 -14.2589 66.7909
CA -6.76862 -36.3046 68.3309
CA 0.457338 -22.2978 49.3358
CA 2.47294 -8.89828 84.9535
CA -0.908617 -26.7953 77.0917
CA -2.94629 -15.8208 90.4488
CA -9.55431 -15.6873 56.7894
CA 7.60155 -20.4203 33.8399
CA 15.0414 -19.1115 50.7371
CA -17.8092 -38.9933 71.6914
CA -6.16222 0.197087 47.1362
CA 9.05942 -17.6466 33.4234
CA 16.3643 -14.2126 69.0657
CA -13.3164 -34.3986 46.3885
CA 2.53062 -34.5656 68.7885
CA 2.57127 -38.2508 63.9597
CA -11.0817 -21.8906 65.3756
CA -21.6143 -20.8261 45.3553
CA -7.81105 -39.3125 75.6096
CA 3.53913 6.65203 77.4094
CA -6.59996 -27.4411 57.1588
CA 15.7808 -20.2404 43.3587
CA -11.3045 -32.9389 58.9371
CA 8.79713 -12.5495 66.1098
CA 2.51807 -6.67778 59.9484
CA -16.3292 -32.9313 54.9846
CA 1.99899 -27.0404 44.4887
CA 2.18976 -1.52923 56.4732
CA 8.86704 -37.6331 44.6722
CA -23.9608 -22.7189 70.581
CA 6.10874 -23.1224 57.1826
CA -18.1221 -33.7614 51.6681
CA -3.18587 -19.7011 51.3736
CA -14.6052 -27.7077 61.887
CA -25.782 -2.30338 50.4528
CA -27.0224 -7.5592 56.2106
CA -24.2171 -9.53508 46.8079
CA -15.9427 -26.4945 68.1922
CA -3.93823 -33.0234 57.7692
CA 1.30265 -20.3587 42.09
CA -19.9756 -26.3711 78.9113
CA -1.28372 -24.6571 7.89307
CA -15.1764 -30.2884 41.2245
CA 1.91032 -0.0305702 72.3386
CA 3.36295 -9.0971 90.991
CA 2.45794 2.56517 46.7711
CA 5.13344 -33.9958 53.1648
CA -2.74794 -19.3577 21.2345
CA -9.16408 -26.6887 53.8847
CA 10.9267 -3.84546 72.408
CA -12.4829 -8.63161 39.1473
CA -4.11582 -21.0595 49.544
CA 8.7045 -32.0085 59.2226
CA -6.8821 -3.43611 44.4702
CA -14.3322 -29.3486 66.6276
CA -37.4456 -18.1015 60.4916
CA -8.43353 0.43519 51.2477
CA 0.805163 -12.2713 54.2121
CA 16.7544 -16.3956 71.5839
CA -5.92214 -11.5376 65.218
CA -14.0244 -20.9247 46.3889
CA -8.022 -36.8497 66.2383
CA -0.247868 -17.9748 11.1855
CA -11.0521 -21.859 48.5617
CA -2.25385 -28.4869 61.1524
CA 0.979835 -27.8599 38.0803
CA 4.60705 -34.3981 79.0086
CA 5.82289 -37.9051 59.1923
CA 6.85532 -27.5578 66.5991
CA -1.79374 7.30956 49.0339
CA 5.86798 -31.636 51.8858
CA 3.16433 -23.4183 39.0521
CA 8.89417 -30.5287 41.2392
CA 2.46564 -29.1928 74.2279
CA -20.0417 -33.8384 50.8793
CA 2.72741 -32.1965 80.9964
CA -24.147 -16.8513 71.0491
CA -2.79751 -11.2502 38.7125
CA -35.784 -23.6431 58.4235
CA 0.847192 -32.4486 57.1622
CA -2.94735 -4.70215 55.4246
CA -6.90944 -19.7041 39.6543
CA -7.42427 -32.5553 71.7765
CA -2.00703 -9.06342 57.6255
CA -11.0235 -37.9942 77.6794
CA -4.27728 -17.6019 32.2949
CA 10.5229 -29.7265 55.9534
CA -15.6014 -11.1212 72.8044
CA 6.76458 -30.3324 47.3823
CA -18.1472 -26.3717 61.8732
CA -12.3452 -21.3978 42.5184
CA -11.8422 -19.4582 18.3775
CA -2.18116 -10.0918 64.4649
CA -2.14429 -23.1275 65.2264
CA -1.24669 -16.0158 89.4693
CA -6.29329 -11.9254 19.7958
CA 13.8474 -15.4556 69.958
CA 2.04929 -14.8208 81.1587
