489

CA -19.2663 3.40848 55.4858
CA -25.1025 -4.26999 49.7139
CA 0.397614 2.73812 43.4225
CA -14.9096 -14.2119 60.2107
CA 2.5412 -30.0797 81.9368
CA -14.8594 -19.901 74.0529
CA -9.45904 6.83352 53.5335
CA 5.91552 -16.8097 61.5432
CA 4.87798 -18.7609 88.5871
CA -0.794057 -24.6496 21.1755
CA 8.51257 -31.4092 39.5166
CA 0.743029 -10.6346 63.1212
CA -21.2494 -28.6321 61.2053
CA 0.456882 -27.5362 62.4685
CA -1.44995 -13.756 53.5779
CA 12.3334 -40.6897 60.6122
CA -28.1895 -3.54305 53.8408
CA -13.9147 -4.54117 60.4805
CA -10.1081 -20.3743 43.1027
CA -11.8267 -39.2317 87.2951
CA -31.8098 -4.88066 59.7625
CA 5.96686 -14.3748 85.1917
CA -20.7049 -31.663 42.6314
CA 6.20003 -26.2454 63.1311
CA -14.275 -28.9792 52.4605
CA -23.4993 -14.9297 48.4241
CA 1.30087 -0.604041 54.2806
CA 17.1459 -19.3087 41.0963
CA 0.282444 -29.6013 42.3282
CA 3.48434 -33.8273 42.2108
CA -18.4284 -38.8938 42.5028
CA -8.89302 -2.07694 44.2609
CA 0.609133 -19.714 51.1344
CA -23.9255 -29.1977 59.8014
CA -9.54382 -30.3092 43.9828
CA 1.2687 -40.0637 60.3806
CA 5.44871 3.25584 48.3555
CA -24.6138 -13.7743 46.6675
CA -20.4781 -4.12103 60.6178
CA -7.0101 -21.9867 37.3811
CA -1.56742 -13.1009 83.4612
CA -5.63298 -36.0972 81.2596
CA -0.240622 -1.41237 43.8533
CA -9.99103 -14.046 32.7218
CA 9.03054 -15.391 61.5741
CA -10.9307 -14.2165 57.1737
CA -21.8118 -38.9164 72.5232
CA -1.22036 -36.3622 56.6281
CA -7.45145 -14.7355 70.2589
CA -22.2915 -6.10873 67.4696
CA -2.07222 -30.5602 70.7757
CA -23.2675 -26.1995 59.1213
CA 9.00936 -26.5602 70.0635
CA 11.4565 -30.2633 40.3565
CA -15.9289 -6.04719 31.1925
CA -10.9928 -36.8612 67.2277
CA 1.65582 -22.2457 81.5234
CA 2.21341 1.73432 50.5986
CA 4.4062 -9.03632 58.1513
CA 3.98258 -25.6608 61.533
CA 1.15085 -23.6096 40.4381
CA -27.3778 -19.4471 70.5323
CA -18.1455 -21.8816 74.491
CA -17.1806 -27.1627 36.5914
CA -23.3306 -11.1866 72.0194
CA -17.5653 -23.5563 77.0322
CA -9.8909 4.2803 52.9141
CA 10.7059 -36.7763 60.9457
CA -2.56553 -12.9267 86.6869
CA -7.52945 -16.9342 38.2005
CA -6.03504 -21.3884 65.5577
CA 12.4474 -11.057 68.3938
CA -16.7029 -9.81115 30.2908
CA 0.827129 -25.7594 25.6616
CA -18.9945 -35.6537 46.4146
CA -12.5204 -29.2395 41.5431
CA -11.8042 6.31765 51.4253
CA -13.8213 -7.37372 33.4497
CA -24.0493 -18.8349 70.4409
CA 9.54073 -1.86768 68.5851
CA 3.37805 -14.4181 83.1428
CA -14.4188 -25.2385 38.5752
CA -16.0423 -8.13576 30.4729
CA -19.0295 -14.108 72.5752
CA 7.98226 -13.3548 68.675
CA -9.64782 -16.8182 23.6479
CA -10.8572 -8.66479 60.3767
CA -12.3745 -25.9617 41.3495
CA -8.88891 -39.1471 34.1053
CA 6.06739 -2.0261 74.6227
CA -9.21337 -15.6753 69.0057
CA 17.8367 -16.5982 41.6533
CA 16.9073 -13.6936 65.546
CA -3.37024 -19.8865 47.3182
CA -15.6054 -40.3138 76.8743
CA -5.01957 -37.2291 37.1509
CA -14.1105 -12.1498 32.54
CA 4.83959 -23.4043 80.6811
CA -2.76766 -19.4997 17.3586
CA -9.47236 -33.3443 72.9947
CA -1.51532 -20.1193 64.5855
CA -12.6522 -27.7157 54.4764
CA -3.07492 -18.7685 29.4475
CA 17.9528 -6.5479 67.6903
CA -0.350093 -33.7163 71.0536
CA 19.8857 -12.2786 61.2709
CA -16.6246 -22.0552 71.8247
CA -34.5038 -19.1004 60.3972
CA -1.12317 -23.8692 59.1195
CA -13.1671 -15.7087 76.2302
CA -37.2116 -24.9675 54.8919
CA -5.37081 -24.7984 69.7347
CA -7.99549 -12.3387 37.7661
CA 8.59123 -25.9426 62.231
CA 15.5777 -23.3611 47.823
CA -34.3857 -27.0026 53.1106
CA 11.9472 -2.47417 68.0915
CA -2.46651 -2.68598 51.2937
CA 6.12571 -32.7848 42.5707
CA -23.3583 -19.83 46.9094
CA 4.79172 -24.5269 74.4388
CA -13.9664 -24.882 34.341
CA -31.1136 -19.9953 64.1479
CA -20.6907 -10.033 71.1263
CA -8.14752 -5.25164 45.9022
CA -3.80979 -10.2529 66.2353
CA -6.75 4.91661 48.5283
CA 11.8944 -26.4718 53.039
CA 20.1451 -21.809 42.7433
CA -23.6314 -12.525 75.5817
CA -16.0015 -32.8637 41.1073
CA -1.47054 -0.337086 51.7919
CA 8.30998 -5.17218 73.4155
CA 5.30414 -30.9329 63.9568
CA -8.85816 -12.8266 28.1833
CA 14.0013 -18.7906 33.3082
CA 9.77548 -2.23435 72.0306
CA 0.98754 -30.7711 45.9688
CA -13.7721 -28.7824 63.2409
CA -6.98871 -40.0557 82.6779
CA -1.42545 -10.0466 88.0064
CA -21.3391 -15.7792 70.1031
CA -12.4976 -22.5159 38.7274
CA 1.11982 -17.8144 87.2903
CA 5.24172 -23.8323 58.5961
CA -8.50317 -35.1584 58.9243
CA -0.716228 -23.8383 49.7305
CA -4.01082 -18.0633 18.8828
CA 1.78004 -35.2695 77.6154
CA 1.88098 -34.586 56.6091
CA -17.0671 -7.7221 54.0887
CA -17.4591 -35.688 44.9685
CA 10.3515 -27.1237 37.8735
CA -14.0082 -15.7847 66.9564
CA -19.6207 -40.0952 45.0941
CA 3.26115 8.61287 50.6671
CA -3.0776 -17.314 7.74858
CA -4.22324 -28.0196 54.7907
CA -7.55043 -17.9045 35.6391
CA 8.92994 -5.98406 71.9299
CA -1.50218 -26.5869 70.5718
CA -21.2415 -9.12559 46.7469
CA -15.0918 -31.6042 54.6701
CA -6.33144 -30.8771 73.802
CA 6.55329 -36.0234 61.4011
CA -9.54448 -17.6279 36.0178
CA -12.3959 -44.4948 72.4405
CA -23.9918 -29.4965 43.1587
CA -22.1616 -1.74486 52.3455
CA -19.8588 -21.8591 49.2505
CA -24.1954 -11.9965 60.9631
CA -4.35941 -21.7899 16.1832
CA 4.1811 -24.4246 18.6707
CA -29.7312 -18.1851 73.4541
CA -38.9151 -23.4386 50.3894
CA 6.46786 -31.6262 71.1618
CA -15.7842 -28.3715 59.099
CA -29.4337 -12.8709 48.4544
CA 16.5781 -17.9649 36.7185
CA -24.3541 -22.4788 44.6622
CA -16.7743 -32.0814 64.073
CA 4.47185 -7.57776 90.0916
CA -18.4998 -35.9425 70.4467
CA -9.13357 -26.4001 73.2482
CA -9.40191 -33.2102 57.6186
CA -18.8743 -25.6188 47.2257
CA -7.51163 -30.3238 45.4618
CA 8.72713 -17.7767 62.8161
CA 9.52664 7.7808 63.6921
CA -1.25534 -15.9612 35.4856
CA 4.86012 -33.9812 81.1632
CA -2.10145 -19.5499 9.21221
CA -17.5607 -34.3629 30.4674
CA -22.0325 -6.31869 58.4336
CA -17.4051 -27.5421 45.0869
CA -21.0739 -19.0687 62.1765
CA 13.9866 -20.6365 40.5311
CA 0.20498 -1.25018 51.7133
CA -2.26262 -14.2218 31.2368
CA -21.5937 -5.19241 29.6615
CA -2.15698 -43.9531 69.5149
CA -14.0106 -27.5744 32.079
CA 6.6668 -35.8055 51.2027
CA -10.5034 -21.5972 51.553
CA -15.7527 -4.50097 59.9219
CA 5.69297 -34.3203 73.9301
CA -9.63047 -27.8521 42.6066
CA -17.7383 -23.1511 35.9803
CA 10.0665 -31.0398 43.9166
CA 3.33028 -26.7756 76.7951
CA -15.3302 -36.0913 28.2841
CA -5.01605 -19.7886 19.9424
CA -17.1997 -31.6167 65.8192
CA -17.7193 -21.5974 59.3135
CA -5.32438 -17.8201 39.9354
CA 6.87927 -24.4048 62.0897
CA -2.37605 -35.4926 33.3555
CA -0.464576 -26.9655 59.9862
CA -2.92306 -14.9108 45.549
CA -22.8271 -8.92657 55.6323
CA -2.84367 -17.5489 86.1763
CA -34.2055 -1.27557 55.9109
CA 4.93754 -8.67665 72.0833
CA 10.3305 -35.4091 52.2191
CA -5.01898 -15.8998 67.3423
CA -24.8566 -31.298 63.8087
CA -7.69551 -2.26681 45.6085
CA -17.2256 -31.2166 54.9194
CA -14.5864 -27.3169 66.1633
CA 5.20713 -32.8424 57.6804
CA -2.2777 -16.8201 50.1509
CA -8.98519 -29.78 69.5175
CA 10.9971 -35.0464 44.059
CA -7.24072 -24.7569 65.7029
CA -27.7687 -19.0276 62.4183
CA -16.9683 -26.4437 73.7872
CA -6.98742 -10.5421 53.4826
CA -1.79441 -18.7243 44.7539
CA -3.67417 -15.8465 49.0368
CA -9.87403 -38.7058 72.0077
CA -10.4548 -7.02632 59.1448
CA -9.90432 -28.1359 71.4781
CA -24.6882 -23.5503 62.1052
CA -16.4897 -10.8029 51.782
CA 0.72164 -27.0572 73.769
CA -20.5017 -30.8921 55.3461
CA -19.9016 -29.5505 44.7926
CA -5.72856 -34.865 59.2431
CA -16.5177 2.68194 56.2874
CA 17.111 -11.0093 56.331
CA 12.8492 -35.6238 60.2993
CA -30.0973 -21.4585 60.6132
CA 6.68882 -33.2875 55.8492
CA 4.77521 -30.141 51.2347
CA -17.1224 -24.0373 74.7067
CA -8.8388 -10.0956 45.9468
CA 9.81747 -25.5122 45.4602
CA 12.9592 -26.4495 44.038
CA 3.73732 8.58136 48.8901
CA -3.98728 -19.3927 13.2989
CA -5.7745 -38.4163 69.6949
CA 9.2852 7.82892 66.832
CA -26.0115 -28.6617 60.3439
CA -13.4579 -25.2515 56.1513
CA -0.929348 -28.2589 69.2796
CA -15.2649 -8.80828 34.4528
CA 14.4963 -15.3847 67.6264
CA -4.02933 -3.05591 59.071
CA 1.78431 -17.7884 81.1189
CA -6.31927 -38.3595 42.7251
CA -14.6885 -12.6713 50.4266
CA 16.0512 -14.3573 46.4651
CA -9.88083 -31.322 69.1982
CA -17.6304 -24.1206 65.843
CA -4.77145 11.6353 47.3565
CA -0.935511 0.284513 41.1393
CA -26.6457 -15.6493 78.2299
CA -13.8081 9.06619 53.2189
CA 5.74064 -14.8293 60.9732
CA -1.23612 -40.4322 68.6738
CA -18.7517 -27.9791 75.7054
CA -14.4295 1.29997 55.8445
CA -8.34828 -16.8415 18.7443
CA 3.56804 -32.6076 54.0617
CA 7.77713 -39.5476 58.2563
CA -8.03534 -27.4034 71.2912
CA -13.4745 -27.7674 68.95
CA 8.494 3.45887 71.1193
CA -12.2894 -40.8578 80.6208
CA -11.9458 -37.9267 80.8008
CA -19.3791 -31.4914 76.9334
CA -17.5105 -38.4205 33.2927
CA -19.34 -40.6495 72.637
CA -19.2694 -8.25345 31.0498
CA -11.9015 -12.568 78.8971
CA -5.62762 -21.0176 21.8846
CA -9.44592 -10.4178 56.5394
CA -17.7046 -30.0633 28.4798
CA -31.7668 -13.829 41.5939
CA -25.6788 -20.3405 67.5549
CA -16.7191 -31.6148 29.0325
CA -16.7799 -9.86675 55.8481
CA -4.55867 -28.7024 62.8172
CA 6.95936 -0.257798 72.9685
CA 9.14358 -34.3704 76.539
CA -18.8633 -19.8663 75.6772
CA 10.9401 -6.42784 70.7674
CA -2.8381 13.4709 48.5948
CA -8.20566 -24.3512 72.9681
CA -14.9055 -27.7413 54.3884
CA 3.75087 -8.17491 60.4728
CA -6.50741 -11.9936 47.6593
CA 8.68169 8.2668 75.3277
CA -19.7913 -6.4824 46.9569
CA -3.11206 -13.8759 52.4261
CA -14.2244 -0.0696358 59.3674
CA -28.772 -13.4944 45.3149
CA 8.43591 -32.128 70.71
CA -9.5643 3.41646 54.4657
CA -9.09921 -22.3187 49.7289
CA -2.9041 -32.5986 56.0365
CA -5.81007 -40.9891 78.224
CA 5.59859 3.94016 72.6592
CA -8.2594 -36.1771 70.8356
CA 3.23092 -27.6063 47.1436
CA -14.2076 -38.807 72.7587
CA -4.35589 -13.391 57.8672
CA -3.08613 -11.1436 78.4966
CA 1.65315 -33.8925 81.3233
CA -20.3665 -6.38883 56.909
CA 4.65165 -34.0928 48.7138
CA -12.4211 -25.9957 35.2692
CA -9.06503 -38.1875 77.279
CA -7.02593 -14.0099 67.8811
CA -8.90076 -27.0756 49.4527
CA -9.59064 -33.4137 69.4776
CA 16.3428 -12.0718 58.1637
CA -19.7021 -13.3051 68.6771
CA -23.9387 -19.4339 75.5281
CA -26.2588 -23.6311 57.8706
CA -6.58687 -15.3895 27.9263
CA -0.742315 -28.8492 72.012
CA -9.14866 -17.2979 43.5762
CA -25.3664 -5.5866 58.1542
CA -16.6902 -13.7097 71.481
CA -10.1055 -12.8186 43.1922
CA -27.9478 -2.5192 52.2913
CA 2.2836 -0.731628 48.1417
CA -17.804 -4.21006 64.3201
CA -2.2722 -33.9653 37.8555
CA -0.288817 -10.0925 85.02
CA -21.5424 -29.6106 72.3813
CA 7.31341 -24.1158 42.7684
CA -14.8636 4.85011 60.742
CA -9.65382 -29.9033 31.3631
CA -6.32949 -23.1722 74.507
CA 16.1789 -9.01149 66.7205
CA 1.7601 -31.258 39.4949
CA -26.8213 -19.8607 72.7043
CA 13.1255 -27.9513 49.9713
CA -14.8986 -38.6548 43.8213
CA -8.85876 -30.9368 56.2801
CA 4.99205 -24.0824 77.6169
CA -0.685196 -20.4472 86.1904
CA -2.95691 -11.8612 83.1786
CA -9.48486 -40.4398 76.7547
CA -30.3274 -1.17326 57.0338
CA -16.0237 -42.5016 77.2747
CA -21.3711 -4.13905 68.5747
CA -5.45662 -6.32948 50.8047
CA -12.9891 -14.0849 33.0075
CA -18.5824 -38.8397 72.3593
CA 4.28795 -27.0827 70.9904
CA -7.50439 -38.9897 41.1786
CA -1.59894 -18.7232 82.104
CA 14.2834 -22.378 52.2444
CA 2.80943 -23.6665 51.9237
CA -15.9668 -28.7668 64.2807
CA 4.15298 -35.5693 41.9055
CA -17.0043 -28.9369 66.8183
CA -17.1913 -8.59895 63.1959
CA -4.96605 -6.763 44.7884
CA -16.6113 -13.5583 50.9301
CA 5.2308 -32.4077 69.2967
CA -12.5732 -40.9161 70.872
CA -13.2277 -18.5368 68.0496
CA -20.7625 -26.9517 41.8221
CA -16.8739 -25.3255 59.2719
CA -16.8151 -17.9532 64.053
CA -15.9891 -6.46579 56.8323
CA -12.7414 -26.7794 63.6445
CA 1.08651 -14.2589 66.7909
CA 2.02239 -45.3705 68.8004
CA 0.457338 -22.2978 49.3358
CA 2.47294 -8.89828 84.9535
CA -0.908617 -26.7953 77.0917
CA -2.94629 -15.8208 90.4488
CA -9.55431 -15.6873 56.7894
CA -31.7049 -28.0928 53.9239
CA -0.751466 -13.7398 60.4123
CA 4.88867 8.30359 75.8246
CA -6.16222 0.197087 47.1362
CA -16.8373 -35.5468 27.3897
CA 16.3643 -14.2126 69.0657
CA -14.5278 -26.1265 51.1142
CA 0.982624 -33.2351 40.9268
CA 2.57127 -38.2508 63.9597
CA -6.9797 -1.4411 44.0152
CA -12.5803 -30.0332 69.089
CA -19.8028 -8.97033 54.6818
CA -2.34217 -32.7776 71.6762
CA -6.59996 -27.4411 57.1588
CA 7.91038 -11.7681 67.0109
CA 0.371428 -23.9393 71.9804
CA -30.9928 -5.03552 57.4244
CA 6.64897 -26.1549 60.284
CA 3.59529 -28.8536 50.2573
CA 1.99899 -27.0404 44.4887
CA 3.9692 -10.6868 66.1355
CA 8.86704 -37.6331 44.6722
CA -11.1325 -16.1697 58.6928
CA 1.44344 0.393788 42.299
CA -1.29414 -37.717 68.525
CA -3.18587 -19.7011 51.3736
CA -14.6052 -27.7077 61.887
CA -12.001 3.29753 53.8462
CA -8.6177 -42.6143 75.99
CA -21.5006 -26.4876 62.3677
CA -15.9427 -26.4945 68.1922
CA -3.93823 -33.0234 57.7692
CA 1.30265 -20.3587 42.09
CA -19.9756 -26.3711 78.9113
CA -1.28372 -24.6571 7.89307
CA -14.6033 -12.6669 54.3221
CA -23.9691 -34.6077 41.7669
CA -8.46067 -30.0123 76.6275
CA -16.1514 -19.4841 78.9885
CA 5.13344 -33.9958 53.1648
CA -2.74794 -19.3577 21.2345
CA -3.75186 -16.53 29.3143
CA 16.8476 -6.23178 63.212
CA -12.4426 -28.7057 39.4428
CA -22.8516 -35.6829 73.303
CA -21.7075 -33.147 41.6526
CA -6.8821 -3.43611 44.4702
CA -9.56668 -37.0971 83.8392
CA -21.4389 -31.7718 72.9677
CA -4.29102 -4.0591 57.0325
CA 4.3402 -32.0512 51.6968
CA -19.4414 -18.5022 60.4976
CA -16.5629 -1.34394 58.554
CA 4.00007 -13.4133 60.4183
CA -8.022 -36.8497 66.2383
CA -0.247868 -17.9748 11.1855
CA -11.0521 -21.859 48.5617
CA -2.25385 -28.4869 61.1524
CA -10.3269 -18.3286 67.8357
CA 10.6432 -28.6644 71.2188
CA 5.82289 -37.9051 59.1923
CA 6.85532 -27.5578 66.5991
CA -1.79374 7.30956 49.0339
CA -21.6357 -24.3754 41.6007
CA -15.2807 -29.1818 30.2701
CA 8.89417 -30.5287 41.2392
CA 2.46564 -29.1928 74.2279
CA 0.526448 -23.4388 6.99331
CA 8.43875 -35.6225 71.2554
CA 17.4015 -20.1248 43.4453
CA -2.79751 -11.2502 38.7125
CA -35.784 -23.6431 58.4235
CA 0.847192 -32.4486 57.1622
CA -5.57701 -5.89223 61.2595
CA 12.6516 -18.4371 64.7077
CA -7.42427 -32.5553 71.7765
CA -2.00703 -9.06342 57.6255
CA 1.91269 -20.8837 47.2474
CA 9.59447 8.29013 70.4615
CA -5.35757 -25.123 58.4997
CA -10.2143 -36.6497 71.6073
CA -20.922 -23.3919 56.421
CA -26.4098 -15.2052 61.5202
CA -16.8343 -33.6947 75.7856
CA -11.8422 -19.4582 18.3775
CA -2.18116 -10.0918 64.4649
CA -2.14429 -23.1275 65.2264
CA 4.06358 0.0692879 74.1338
CA -6.29329 -11.9254 19.7958
CA -2.84636 -11.8291 68.2514
CA 2.04929 -14.8208 81.1587
