489

CA -21.5538 -11.1328 47.4527
CA -25.1025 -4.26999 49.7139
CA -21.1715 -23.32 51.5434
CA -21.8301 -24.5906 55.5549
CA -17.1125 -8.62133 56.3102
CA -20.2717 -22.9152 80.9986
CA -31.7411 -16.833 54.5457
CA -3.14219 -22.0885 76.2105
CA 4.87798 -18.7609 88.5871
CA -3.79528 -16.8884 38.9734
CA -30.1081 -18.2624 76.7843
CA -11.9611 -23.9474 47.4867
CA 4.25282 -23.5143 35.9935
CA -0.325076 -15.9581 61.1566
CA -0.648279 -21.912 5.97088
CA 10.0499 -28.6213 66.9522
CA 1.07614 -23.5888 59.0431
CA 3.17566 -29.733 47.6374
CA -13.4653 -31.4054 35.7035
CA -11.8267 -39.2317 87.2951
CA 11.0167 -15.8587 68.413
CA -14.5527 -17.1041 49.8057
CA -7.96629 -11.0969 79.3596
CA 3.79918 -21.01 13.1175
CA -14.275 -28.9792 52.4605
CA -6.51768 -6.98443 78.8255
CA -14.1542 -15.1473 34.379
CA -7.03399 -13.3858 59.4769
CA -1.73662 -29.4602 47.4459
CA -12.9984 -20.8093 44.6866
CA -5.9985 -9.20371 50.6174
CA -4.53925 -11.2069 50.7705
CA -11.5312 -25.6414 36.7266
CA 12.7181 -32.835 70.1293
CA -21.1214 -31.2255 41.4074
CA -25.0244 -15.7415 47.3551
CA -25.1302 -18.2129 56.0677
CA -19.5399 -8.83138 36.6093
CA -5.34761 -16.8156 23.4312
CA -2.88441 -23.6535 61.5297
CA 5.8183 8.43433 71.9637
CA 22.04 -13.6824 61.245
CA -0.240622 -1.41237 43.8533
CA -9.99103 -14.046 32.7218
CA 2.24572 -29.2562 77.1893
CA -10.9307 -14.2165 57.1737
CA -13.6628 -17.2085 54.2021
CA -13.7888 -34.437 34.4024
CA -26.6705 -22.3704 73.9738
CA -9.89847 -29.088 49.521
CA -6.08305 -34.7592 38.2738
CA 4.41315 -30.0716 45.6115
CA -17.3454 -30.2926 44.9709
CA -18.964 -32.4402 81.2519
CA -21.0257 -15.8404 47.6156
CA -10.9928 -36.8612 67.2277
CA 1.65582 -22.2457 81.5234
CA 5.02031 6.8498 46.9146
CA -12.3632 -12.2117 78.4955
CA -4.72982 -3.26236 55.3478
CA -23.7352 -11.6727 67.0801
CA -0.688354 -22.4883 54.5915
CA -16.6729 -25.945 64.6701
CA 2.51884 -17.6958 84.4227
CA -17.5688 -7.51871 58.3597
CA -17.5653 -23.5563 77.0322
CA -9.68274 -41.2481 74.3459
CA 10.7059 -36.7763 60.9457
CA -4.81107 -17.1322 28.1239
CA -25.8616 -13.0066 73.4505
CA -19.3543 -27.0691 44.7784
CA 12.4474 -11.057 68.3938
CA -21.3434 -28.4904 45.0074
CA -20.9194 -6.67019 65.5722
CA -1.77068 -29.3876 44.5372
CA -12.5204 -29.2395 41.5431
CA -25.4329 -11.1951 46.4189
CA -13.0951 -34.6192 55.3001
CA -32.2947 -19.7538 66.6352
CA -4.64922 -13.4376 24.3717
CA -4.1805 -16.7575 44.3073
CA 1.12582 3.75901 51.6753
CA -4.00979 -22.1849 18.2135
CA -1.81775 -31.022 57.4257
CA 1.40601 -25.7688 73.5409
CA -26.9131 -17.1539 71.1292
CA 6.5727 -10.6661 59.6135
CA -2.87256 -23.3056 51.1207
CA -9.41603 -40.3035 72.4507
CA 5.56089 -38.5064 72.0804
CA -21.109 -11.7355 62.1389
CA 5.38584 -25.8837 37.8716
CA 1.94079 -31.1035 41.1158
CA -4.30741 -11.6251 8.92722
CA 0.325646 -4.71166 68.6941
CA -15.0456 -40.3471 72.5199
CA -27.4521 -14.0019 63.2445
CA -13.142 -19.9556 54.9013
CA 5.55961 -10.098 75.0191
CA -5.64919 -20.7932 46.9539
CA 0.858764 -15.1128 59.7711
CA -13.4047 -36.5185 47.8674
CA 2.65989 9.10905 47.8314
CA -4.00513 -16.8567 90.4461
CA -3.20426 -24.8312 22.5165
CA 19.8857 -12.2786 61.2709
CA -18.8607 -10.5752 47.4972
CA -14.8936 -32.3226 37.3552
CA -1.12317 -23.8692 59.1195
CA -10.0777 -26.3983 70.4662
CA -7.37272 -29.0192 48.0511
CA -1.93119 -31.5549 44.7094
CA 10.0891 -26.9399 69.1136
CA -2.14928 -1.21041 52.7233
CA -12.7653 -21.1033 77.5667
CA -8.1489 -2.40568 54.1801
CA 2.75535 -17.9362 89.527
CA -2.46651 -2.68598 51.2937
CA -17.4592 -15.4257 38.8142
CA -23.3583 -19.83 46.9094
CA -3.07359 -8.87732 88.044
CA 15.8851 -25.3919 44.9465
CA -31.1136 -19.9953 64.1479
CA -20.6907 -10.033 71.1263
CA -6.60782 -22.926 58.4128
CA 17.4222 -23.1796 41.4451
CA -13.0575 -20.3105 47.6489
CA -2.33407 -18.6791 44.5497
CA -3.89874 -17.6126 36.506
CA -7.86672 -33.9519 39.6913
CA 17.3718 -21.8433 45.52
CA 0.727992 -35.7285 58.7785
CA 6.72867 -29.4204 71.9724
CA -6.90813 -19.5944 21.0369
CA -8.85816 -12.8266 28.1833
CA -23.328 -25.3644 80.0732
CA 9.77548 -2.23435 72.0306
CA -15.9712 -22.3843 56.9466
CA 8.08506 -33.4101 53.9802
CA -7.52282 -11.6475 55.2857
CA -1.42545 -10.0466 88.0064
CA -8.09975 -36.1778 34.5027
CA -4.09437 -20.373 25.3831
CA -16.8357 -19.2599 55.5598
CA 5.24172 -23.8323 58.5961
CA -8.50317 -35.1584 58.9243
CA -0.716228 -23.8383 49.7305
CA -0.719713 -19.5782 15.2223
CA 8.70918 -30.3111 49.5153
CA -1.37057 -27.5401 53.442
CA 4.29739 -13.7903 69.6232
CA -2.56657 -7.68695 67.6113
CA 10.3515 -27.1237 37.8735
CA -20.0784 -20.0756 83.5751
CA 15.767 -30.2866 73.9514
CA 3.26115 8.61287 50.6671
CA 8.15803 -6.31683 74.8013
CA 13.8869 -26.2219 51.543
CA -16.5638 -24.0015 49.0187
CA -21.3308 -31.6287 57.2941
CA -11.1006 -32.0411 52.7469
CA -22.2291 -27.9267 81.6452
CA -15.0918 -31.6042 54.6701
CA -11.0697 -13.3253 44.4022
CA 10.7996 -19.4022 68.9859
CA 3.02545 -14.3471 57.3759
CA -15.2347 -24.1076 59.7091
CA -18.6105 -44.8048 77.27
CA 3.77138 -2.95083 74.0929
CA 2.53824 -20.2714 75.0874
CA -0.970749 -18.3119 86.0162
CA -5.49604 -11.8527 11.5022
CA -35.5992 -25.3305 57.6146
CA -21.8294 -32.4831 73.2761
CA -18.1798 -27.4424 78.6203
CA -19.7124 -10.6774 60.7253
CA -10.1486 -32.5419 67.4594
CA 5.34031 -0.116404 43.3389
CA 2.4835 -43.4825 68.1419
CA -15.269 -25.9298 71.5115
CA 12.9784 -31.591 52.298
CA 2.59259 -1.70433 43.3862
CA -4.18037 -12.9224 51.3785
CA -8.52971 -36.9868 80.0287
CA -9.40191 -33.2102 57.6186
CA 4.51494 -21.0713 59.3996
CA -7.51163 -30.3238 45.4618
CA -20.8457 -26.0428 74.7207
CA -4.84862 -36.4278 43.4279
CA 0.921228 -29.8919 59.5731
CA -4.57375 -19.7955 18.8152
CA -19.3864 -31.2324 72.3575
CA -13.0698 -33.5747 70.2904
CA -22.0325 -6.31869 58.4336
CA -15.4964 -23.8441 34.1494
CA -21.0739 -19.0687 62.1765
CA -21.2742 -26.474 39.7565
CA 0.20498 -1.25018 51.7133
CA 1.17335 12.0903 47.9098
CA -8.33744 -22.3024 67.3695
CA -24.6734 -7.54157 66.946
CA -10.0762 -9.06341 76.4591
CA -16.7965 -25.0659 59.7199
CA -23.0488 -22.5462 83.5652
CA -5.5763 -37.1372 67.8688
CA 5.69297 -34.3203 73.9301
CA 1.50547 -24.0005 69.4472
CA -16.7191 -13.6035 39.1024
CA 3.34613 -22.96 12.5209
CA -10.0273 -24.0343 47.946
CA -10.1677 -16.4304 76.1953
CA 1.08563 -18.703 89.4722
CA -12.4507 -14.2855 38.7042
CA -17.7193 -21.5974 59.3135
CA -5.32438 -17.8201 39.9354
CA -0.755642 -31.1608 60.1571
CA 6.45862 -26.7836 62.4087
CA 6.38091 -13.1252 55.334
CA -6.01261 -23.9316 17.7771
CA 0.783505 -27.9309 71.6534
CA -3.75524 -5.20542 57.4135
CA 1.84586 -24.7257 67.6842
CA 4.93754 -8.67665 72.0833
CA 10.7405 -11.5597 64.7851
CA -23.5856 -30.8787 56.9447
CA 12.879 -32.3424 37.5041
CA -34.0251 -15.5891 56.5302
CA -1.08796 -19.8676 52.9152
CA -14.5864 -27.3169 66.1633
CA 14.0186 -30.0079 48.2469
CA -21.3896 -26.452 82.5203
CA -16.1312 -30.2782 65.821
CA -17.8928 -34.2402 40.7086
CA 7.28525 -35.9673 61.7947
CA -27.7687 -19.0276 62.4183
CA -16.9683 -26.4437 73.7872
CA -6.98742 -10.5421 53.4826
CA -28.0955 -18.6472 55.417
CA -16.6117 -21.1435 47.5021
CA 1.49857 -7.33123 87.8209
CA -11.8335 -23.1229 69.57
CA -4.91222 -14.3007 11.2199
CA -24.6882 -23.5503 62.1052
CA -13.3013 -31.6693 38.3275
CA -18.7531 -19.1856 55.729
CA 5.43121 -32.132 56.9158
CA -7.01962 0.997801 57.581
CA -3.61657 -1.71742 57.3479
CA -17.4847 -1.20037 67.6982
CA -18.0324 -33.4171 55.5544
CA -7.56979 -16.4428 57.3204
CA 15.5523 -26.6351 48.2644
CA -2.74584 -16.1746 74.2801
CA 4.77521 -30.141 51.2347
CA -15.3656 -19.6511 33.63
CA -1.18104 -11.8146 11.9454
CA -1.76214 -4.24731 47.198
CA 5.68755 -8.86927 59.9507
CA -29.74 -18.8553 63.7962
CA -18.7748 -34.3109 47.4056
CA -15.4903 5.43658 54.014
CA -29.0787 -16.014 61.9172
CA -26.0115 -28.6617 60.3439
CA -3.44559 -9.75276 43.1448
CA -3.63726 -10.9339 63.647
CA -13.9737 -34.3195 48.6948
CA 14.4963 -15.3847 67.6264
CA 1.93739 -28.8785 66.709
CA -20.3965 -32.7529 45.7567
CA -0.0741578 -11.1618 82.9832
CA 0.499907 -29.2274 45.5341
CA -2.45068 -13.0962 45.2795
CA 6.78723 -40.2242 73.5867
CA 4.42151 -32.2194 58.8534
CA -4.77145 11.6353 47.3565
CA -15.9878 -24.6284 55.2147
CA -17.3635 -12.7495 67.3459
CA -13.8081 9.06619 53.2189
CA -3.51116 -21.3471 80.469
CA -1.23612 -40.4322 68.6738
CA 8.38493 -24.6758 54.8703
CA -14.4295 1.29997 55.8445
CA -8.34828 -16.8415 18.7443
CA -16.6979 -13.4201 33.9703
CA -19.7124 -25.9796 46.4209
CA -8.03534 -27.4034 71.2912
CA -1.67695 -9.39541 68.4236
CA -0.227268 -10.6246 68.0671
CA -6.48725 -31.0981 44.1819
CA 16.1218 -16.7289 46.3098
CA 0.325223 -4.09018 48.8091
CA -10.7282 -21.2339 43.2498
CA 2.10473 -20.5221 11.7833
CA -9.1237 -0.887533 55.1544
CA -2.70323 -17.8825 7.5408
CA -3.56252 -24.5931 20.7219
CA -31.0411 -16.457 66.628
CA -6.75647 -17.3706 24.4085
CA -16.0178 -10.3228 39.7561
CA -35.6342 -21.519 62.4356
CA -20.4294 -26.5183 80.9547
CA -16.3918 -36.4093 71.3046
CA 1.04649 -31.0452 53.5313
CA -7.41203 -8.55423 28.608
CA -22.1726 -23.7921 64.4507
CA -2.45665 -22.0409 77.886
CA -6.26339 -14.4943 76.558
CA -4.03464 -27.1298 63.2549
CA -8.20566 -24.3512 72.9681
CA -1.07112 -11.2685 57.2
CA 13.0301 -35.8154 40.244
CA 6.61163 -28.1398 68.3895
CA 9.21082 -13.1007 76.3603
CA -17.0088 -33.1977 46.7872
CA -18.6299 -22.3769 62.4465
CA -14.2244 -0.0696358 59.3674
CA 0.0706515 5.66033 49.1716
CA 8.43591 -32.128 70.71
CA -21.2482 -17.2902 59.1527
CA -1.52104 -38.4438 45.6482
CA 12.0066 -13.1071 66.8224
CA -14.7431 -2.36352 55.2563
CA -14.1815 -37.2309 56.4359
CA 12.9796 -30.6346 74.6009
CA -14.7821 7.2722 50.5051
CA 0.0356615 -32.4376 76.8235
CA -24.873 -9.39538 63.6879
CA -0.865478 -17.272 9.34702
CA 0.172206 -39.2921 47.4696
CA 8.14831 -29.3716 67.4275
CA -2.15469 -10.8731 86.4782
CA -1.95266 10.8692 49.1764
CA -12.2861 -34.0771 57.1369
CA -19.5875 -30.3144 80.0592
CA -11.1186 -37.7679 53.8636
CA 7.65815 -34.1817 63.7794
CA 16.3428 -12.0718 58.1637
CA 4.01396 -15.173 62.5966
CA -23.9387 -19.4339 75.5281
CA -12.6536 1.02011 54.0401
CA -31.5941 -23.4684 58.2121
CA -0.742315 -28.8492 72.012
CA -3.99155 -47.2996 69.3315
CA -25.3664 -5.5866 58.1542
CA -9.67154 -33.1649 71.2372
CA -19.225 -5.64722 68.1297
CA -11.5254 -31.9428 71.7862
CA -2.56737 -25.6539 52.3087
CA -17.804 -4.21006 64.3201
CA -17.1527 -26.9904 42.7571
CA -0.288817 -10.0925 85.02
CA 4.69374 6.48831 71.7135
CA -6.72725 -25.0316 72.1004
CA -14.8636 4.85011 60.742
CA 3.58976 -22.2817 31.362
CA -1.86047 -18.7462 49.3124
CA -19.4838 -18.842 86.5662
CA -21.9125 -4.70112 65.7696
CA 4.15801 -36.1026 62.555
CA 13.1255 -27.9513 49.9713
CA -29.7334 -17.5636 54.7542
CA -4.90822 -8.15998 67.6669
CA -3.60427 -1.20349 60.5084
CA -16.673 -29.6433 42.1287
CA -34.1488 -28.459 54.023
CA -9.48162 -30.8656 74.105
CA -10.4759 -25.9101 68.4334
CA -13.3465 -27.4751 62.9014
CA -6.10584 -30.4411 62.0228
CA -23.719 -10.3055 60.1025
CA -15.5558 -41.0149 78.2727
CA -17.8834 -9.38087 39.3896
CA -23.0262 -23.2741 45.3741
CA -7.33283 -23.653 62.874
CA -0.369155 -2.33407 50.256
CA 1.78345 -32.6773 61.395
CA 2.40501 10.8328 50.5958
CA 3.22027 -32.6551 77.2097
CA -4.71912 -29.6051 45.6529
CA -2.2586 -40.6041 47.5415
CA -0.942867 -12.5985 89.8077
CA -29.5013 -21.3728 70.4409
CA 5.80718 -1.07051 75.584
CA -24.229 -10.9204 55.8435
CA -11.5571 -2.73721 55.2685
CA -1.27992 -7.63836 64.8198
CA -20.7625 -26.9517 41.8221
CA -26.5797 -8.67708 49.5501
CA -17.0832 -27.2102 62.5697
CA -30.8865 -26.8574 51.6418
CA 5.7579 -19.1032 60.2973
CA -1.68195 -1.99645 47.0073
CA 4.94865 -14.103 54.4345
CA -5.92173 -1.00709 42.7573
CA -13.9932 -20.1969 50.1935
CA -7.87569 -18.5309 28.1645
CA -29.9736 -25.8068 64.4449
CA -7.08963 -15.3123 25.5815
CA -11.0105 -39.5589 83.624
CA -7.55258 -40.8658 65.2796
CA -9.87813 -12.6662 62.2808
CA -1.64782 -15.6598 8.10796
CA 3.78672 -20.3336 76.6595
CA 16.7645 -29.6249 48.2211
CA -14.5278 -26.1265 51.1142
CA -1.09211 -45.6557 69.829
CA -9.58612 -10.325 44.747
CA 7.41604 -5.98866 60.2971
CA -19.4655 -43.8203 78.7452
CA -19.8028 -8.97033 54.6818
CA -29.5126 -20.4568 72.0817
CA -0.486294 -23.2262 32.0802
CA -7.20882 -40.1873 68.7376
CA 14.4126 -13.8803 64.3084
CA -30.9928 -5.03552 57.4244
CA 1.1302 -19.2026 15.5209
CA -15.4983 -35.2578 37.4263
CA 8.37046 -33.3566 58.986
CA -13.1158 -21.9559 46.4739
CA 2.15806 -10.2764 61.0151
CA -24.8812 -20.1672 51.4216
CA -9.05781 -34.8825 76.4936
CA -28.5273 -22.9675 64.28
CA 8.29186 -32.0996 68.7209
CA -4.94113 -18.7563 66.6467
CA -15.7912 -36.9785 53.2364
CA -29.3831 -26.9948 66.3546
CA -11.9668 -36.3129 75.6943
CA 14.5378 -9.38724 61.1964
CA -4.95295 -32.2042 41.5529
CA 0.365246 -32.7484 46.3687
CA -27.9645 -16.397 79.026
CA -19.576 -17.2011 52.0958
CA -5.77884 -15.7936 72.5961
CA -25.2051 -8.24752 71.7854
CA 2.59332 -20.9628 50.2997
CA -9.33057 -7.85813 50.5843
CA -11.3749 -42.4695 77.5764
CA -5.41714 -24.0113 25.8737
CA -14.6754 -10.8155 33.7487
CA 2.14202 -24.1553 73.984
CA -7.77949 -7.03625 47.8205
CA -9.87119 -35.9603 74.8704
CA -21.7075 -33.147 41.6526
CA -6.8821 -3.43611 44.4702
CA -9.56668 -37.0971 83.8392
CA -9.67772 -9.39588 79.2843
CA -1.37229 -16.2326 32.3604
CA 1.08959 -16.5762 70.642
CA 0.668169 -20.7535 29.6823
CA -4.28917 -17.4722 80.6724
CA 4.00007 -13.4133 60.4183
CA -24.9945 -13.7481 70.6648
CA 11.679 -10.6208 73.0466
CA -11.0521 -21.859 48.5617
CA -9.30657 -29.8913 56.5776
CA 10.9008 -14.8537 53.9639
CA 10.6432 -28.6644 71.2188
CA 9.54893 -31.3392 59.9556
CA -2.18305 -44.8911 74.308
CA 2.70629 -19.4304 57.7283
CA -6.0789 -7.21384 26.9376
CA -15.7099 0.00184848 55.9482
CA 8.89417 -30.5287 41.2392
CA 6.11657 1.08196 71.8614
CA -16.8773 -28.5179 43.7061
CA -11.9881 -36.9475 78.1882
CA 17.4015 -20.1248 43.4453
CA -4.44649 -36.5975 81.0976
CA -14.2751 -34.9449 70.1674
CA -5.83143 -4.19078 58.2059
CA -17.8424 -23.9972 53.742
CA -34.0563 -22.675 49.5746
CA -22.4929 -20.5088 62.3545
CA -18.5677 -15.7575 46.3541
CA -24.607 -17.8188 45.4527
CA 9.59447 8.29013 70.4615
CA -5.35757 -25.123 58.4997
CA 2.21052 -23.5762 17.1229
CA -19.8365 -41.3148 78.5477
CA -7.69085 -25.0317 57.4385
CA -18.859 -32.2984 52.7935
CA -31.8155 -20.512 61.0081
CA -7.30221 -31.6037 42.5787
CA -9.47571 -12.5689 79.0467
CA -1.09514 -29.3722 58.9239
CA -13.9291 10.8444 50.9425
CA -2.84636 -11.8291 68.2514
CA 0.776676 -11.7003 61.4544
