489

CA -26.5008 -19.1357 50.0513
CA -25.1025 -4.26999 49.7139
CA -21.1715 -23.32 51.5434
CA -4.4981 -20.3568 60.7295
CA -17.0771 0.293856 69.0207
CA -20.2717 -22.9152 80.9986
CA -31.7411 -16.833 54.5457
CA 1.78042 3.65456 47.859
CA 4.87798 -18.7609 88.5871
CA 10.8895 -12.5142 56.978
CA -9.43144 -25.9868 65.0718
CA -33.6275 -16.4406 64.1849
CA -5.49777 -25.4356 59.5849
CA 14.1356 -10.2004 64.314
CA -8.91876 -27.3003 58.0354
CA 10.0499 -28.6213 66.9522
CA 2.95952 -36.5681 45.3427
CA -0.0975392 -18.971 81.274
CA 9.24384 -28.0403 74.0108
CA 2.10793 -21.1321 84.3267
CA -4.25593 -20.1162 11.5999
CA -14.5527 -17.1041 49.8057
CA -20.1449 -26.0522 49.9548
CA -3.80814 -45.2402 71.6303
CA -2.0146 -13.2616 88.1612
CA -6.51768 -6.98443 78.8255
CA -14.1542 -15.1473 34.379
CA -7.03399 -13.3858 59.4769
CA -22.3462 -32.313 68.7389
CA -16.4184 -18.8111 77.2942
CA -19.7041 -29.5282 56.4313
CA -4.53925 -11.2069 50.7705
CA -3.21728 -35.0411 40.3805
CA -22.4307 -10.7365 51.0154
CA -21.1214 -31.2255 41.4074
CA -18.5114 -12.4256 65.4637
CA 8.95277 -29.6303 60.6979
CA -3.5304 -38.3007 65.6751
CA 3.64342 -13.8132 67.6308
CA -6.13573 -30.9587 76.6521
CA -19.7477 -1.04708 65.8367
CA 22.04 -13.6824 61.245
CA 4.05728 -18.69 55.576
CA -9.99103 -14.046 32.7218
CA 9.71849 -2.38031 70.8838
CA -10.9307 -14.2165 57.1737
CA -13.6628 -17.2085 54.2021
CA 13.1435 -31.013 69.105
CA -26.6705 -22.3704 73.9738
CA -9.00153 -29.823 59.0464
CA -8.62769 -32.6656 45.1077
CA -9.0735 -13.3657 57.5275
CA -17.3454 -30.2926 44.9709
CA -18.964 -32.4402 81.2519
CA -4.39751 -38.1716 44.0572
CA -16.2808 -18.0934 35.2343
CA -9.56927 -24.2509 59.4743
CA 14.0742 -13.5171 70.1645
CA -1.94664 -19.3754 89.2129
CA -4.78228 -22.1036 72.3908
CA -23.7352 -11.6727 67.0801
CA -24.0238 -30.1182 54.2308
CA -7.23135 -39.3075 63.0609
CA 0.84306 4.72451 53.3572
CA -17.5688 -7.51871 58.3597
CA -17.5653 -23.5563 77.0322
CA -9.68274 -41.2481 74.3459
CA 10.7059 -36.7763 60.9457
CA -4.81107 -17.1322 28.1239
CA -25.8616 -13.0066 73.4505
CA -8.97246 -12.6482 74.3455
CA 12.4474 -11.057 68.3938
CA -14.1601 -37.3392 68.8934
CA 6.50393 -16.6041 59.998
CA -21.4757 -29.4262 83.1098
CA -21.8423 -31.8073 70.9302
CA 1.07831 -33.0188 40.1963
CA 4.86404 -20.3904 63.7011
CA -30.2576 -14.6494 61.2927
CA 2.99718 -31.2677 68.0127
CA -20.9105 1.57219 68.534
CA 1.12582 3.75901 51.6753
CA -8.14111 -37.215 32.7177
CA -1.81775 -31.022 57.4257
CA 1.40601 -25.7688 73.5409
CA -26.9131 -17.1539 71.1292
CA 4.40079 -28.3886 49.3918
CA -2.87256 -23.3056 51.1207
CA -21.0636 -31.4731 67.6088
CA 5.56089 -38.5064 72.0804
CA -21.109 -11.7355 62.1389
CA 5.38584 -25.8837 37.8716
CA 1.94079 -31.1035 41.1158
CA -4.30741 -11.6251 8.92722
CA 0.325646 -4.71166 68.6941
CA -14.8488 0.544507 54.1482
CA -27.4521 -14.0019 63.2445
CA 5.10673 -36.9511 59.6144
CA -9.09792 -13.8129 53.7023
CA -1.99706 -22.0542 39.7844
CA 19.4051 -13.3793 60.2804
CA -8.90674 -18.0286 79.9725
CA 2.65989 9.10905 47.8314
CA -35.9972 -17.4222 63.9838
CA -24.9938 -20.3536 45.6464
CA -2.32185 -15.1986 56.8088
CA -19.4133 -30.6454 69.0249
CA -14.8936 -32.3226 37.3552
CA -1.12317 -23.8692 59.1195
CA 15.7085 -15.2723 50.0949
CA -15.1845 -39.3119 73.959
CA -1.93119 -31.5549 44.7094
CA 7.85964 5.01448 48.3057
CA 13.7192 -19.1375 68.4531
CA -12.7653 -21.1033 77.5667
CA -10.8349 -38.3382 64.9788
CA 2.8728 -21.1942 35.7753
CA -6.65614 -41.8046 70.9615
CA 11.1519 -25.0935 49.2514
CA -23.3583 -19.83 46.9094
CA -5.89789 -36.0243 77.7383
CA 15.8851 -25.3919 44.9465
CA -31.1136 -19.9953 64.1479
CA 0.0773674 -17.236 72.2154
CA -20.7392 -6.1652 54.0026
CA 1.44848 -11.8846 68.6685
CA -13.0575 -20.3105 47.6489
CA 17.1883 -11.334 66.6589
CA -3.89874 -17.6126 36.506
CA -7.86672 -33.9519 39.6913
CA 17.3718 -21.8433 45.52
CA -13.4126 -12.3112 34.7177
CA -3.08591 -11.1184 90.1343
CA -6.90813 -19.5944 21.0369
CA -8.85816 -12.8266 28.1833
CA -25.4804 -21.7771 59.9975
CA -1.19572 -4.5755 46.0983
CA -3.62058 -3.90589 57.7425
CA 8.08506 -33.4101 53.9802
CA -24.7801 -19.049 54.6432
CA 12.3981 -23.2319 49.5116
CA -8.09975 -36.1778 34.5027
CA -2.8165 -28.1966 45.7941
CA -16.8357 -19.2599 55.5598
CA -13.1521 -26.9037 40.251
CA -8.50317 -35.1584 58.9243
CA -0.716228 -23.8383 49.7305
CA -0.719713 -19.5782 15.2223
CA -0.371007 -21.0271 9.51517
CA -1.37057 -27.5401 53.442
CA 4.29739 -13.7903 69.6232
CA -2.56657 -7.68695 67.6113
CA 10.3515 -27.1237 37.8735
CA -20.0784 -20.0756 83.5751
CA 15.767 -30.2866 73.9514
CA -17.2698 -31.1028 67.3937
CA 8.15803 -6.31683 74.8013
CA 9.12454 -29.9007 70.8948
CA -9.48875 -41.8508 63.361
CA -25.1877 -26.5167 60.3145
CA -11.1006 -32.0411 52.7469
CA -5.90431 -28.2834 44.3094
CA -23.1378 -33.1937 55.6192
CA -11.0697 -13.3253 44.4022
CA 10.7996 -19.4022 68.9859
CA 3.02545 -14.3471 57.3759
CA -5.89447 -20.0592 90.4172
CA -5.56697 -7.06847 50.9105
CA -23.3535 -26.9157 38.5883
CA -7.6065 -14.9935 36.4443
CA 8.01701 -13.9727 69.5294
CA -5.49604 -11.8527 11.5022
CA -12.118 -38.8446 57.3009
CA -12.5044 -36.5953 47.941
CA -18.1798 -27.4424 78.6203
CA -19.7124 -10.6774 60.7253
CA -3.32371 -17.9001 59.4902
CA 5.34465 -29.4896 57.1353
CA 2.4835 -43.4825 68.1419
CA -9.97365 -13.9247 26.8486
CA -7.77495 -8.94043 53.152
CA 2.59259 -1.70433 43.3862
CA 3.00373 -12.3307 92.0694
CA -8.52971 -36.9868 80.0287
CA -13.0997 -25.1064 35.4974
CA 4.51494 -21.0713 59.3996
CA -7.51163 -30.3238 45.4618
CA -8.83624 -30.3757 49.317
CA -4.84862 -36.4278 43.4279
CA 0.921228 -29.8919 59.5731
CA -5.06427 -26.8647 46.0983
CA -4.47766 -26.701 44.2476
CA -13.0698 -33.5747 70.2904
CA -8.64398 -27.4908 66.7082
CA -15.4964 -23.8441 34.1494
CA -21.0739 -19.0687 62.1765
CA -21.2742 -26.474 39.7565
CA -15.1271 -36.118 58.0952
CA 1.17335 12.0903 47.9098
CA -8.33744 -22.3024 67.3695
CA -2.4902 -21.5068 60.8594
CA 11.5253 -30.0919 50.9266
CA -16.7965 -25.0659 59.7199
CA -4.77634 -12.9102 48.7131
CA -5.5763 -37.1372 67.8688
CA 5.69297 -34.3203 73.9301
CA -13.7332 -35.2001 69.8415
CA -16.7191 -13.6035 39.1024
CA 3.34613 -22.96 12.5209
CA -22.1957 -5.82189 51.9981
CA -10.1677 -16.4304 76.1953
CA 1.08563 -18.703 89.4722
CA -12.4507 -14.2855 38.7042
CA -17.7193 -21.5974 59.3135
CA -5.32438 -17.8201 39.9354
CA -12.5261 -22.4741 60.0129
CA -1.63084 -24.676 6.47611
CA 6.38091 -13.1252 55.334
CA -6.01261 -23.9316 17.7771
CA 0.783505 -27.9309 71.6534
CA -3.5197 -18.659 68.0715
CA 1.84586 -24.7257 67.6842
CA 4.93754 -8.67665 72.0833
CA -1.45425 -43.4042 68.3406
CA -23.5856 -30.8787 56.9447
CA 12.879 -32.3424 37.5041
CA -7.63814 -7.82023 13.6382
CA -1.08796 -19.8676 52.9152
CA -17.7458 -5.38027 57.9023
CA -1.38548 -19.9295 42.36
CA -0.966985 -22.1244 63.9614
CA 1.00275 -28.5277 41.5701
CA -7.82337 -20.7605 26.4051
CA 7.28525 -35.9673 61.7947
CA 11.9449 -28.3047 46.5564
CA 2.04552 -25.548 60.0134
CA -6.98742 -10.5421 53.4826
CA -28.0955 -18.6472 55.417
CA -16.6117 -21.1435 47.5021
CA 7.66103 -32.1437 51.6373
CA -2.34397 -9.53076 88.9784
CA -23.5517 -12.7094 78.189
CA 1.59745 -16.8448 86.4963
CA -9.09665 -23.9607 37.5044
CA -18.7531 -19.1856 55.729
CA -7.45059 -27.6141 63.7064
CA -7.01962 0.997801 57.581
CA -3.61657 -1.71742 57.3479
CA 11.8284 -10.8512 65.6755
CA -34.0998 -24.8583 63.7665
CA -10.3578 -38.876 80.7303
CA -17.2628 -10.3524 36.4369
CA -2.74584 -16.1746 74.2801
CA -17.0995 2.79899 61.7272
CA -15.3656 -19.6511 33.63
CA -1.18104 -11.8146 11.9454
CA 7.65106 -26.6481 71.2473
CA -17.5098 -37.2599 67.8474
CA -29.74 -18.8553 63.7962
CA -34.2489 -24.1684 52.4723
CA -15.4903 5.43658 54.014
CA -12.2637 -28.7554 69.9506
CA -4.85206 -39.1718 42.2033
CA -3.44559 -9.75276 43.1448
CA -0.889648 -30.0763 70.8958
CA -13.9737 -34.3195 48.6948
CA 14.4963 -15.3847 67.6264
CA 1.93739 -28.8785 66.709
CA -23.8264 -8.83633 49.0887
CA -7.82459 -26.1522 45.4258
CA -6.11971 1.3425 43.9348
CA 18.0472 -21.4958 48.4
CA 6.78723 -40.2242 73.5867
CA -2.39731 -2.3444 59.8784
CA -16.2273 7.64462 55.8689
CA -12.4476 -16.6428 34.8167
CA -21.2286 -22.7454 83.6901
CA -22.9478 -5.67865 67.6131
CA -3.51116 -21.3471 80.469
CA -0.107118 -13.2337 91.4231
CA 8.38493 -24.6758 54.8703
CA -13.9171 -28.2107 61.1932
CA -8.34828 -16.8415 18.7443
CA 6.71648 -19.4964 56.5404
CA -20.0168 -29.4425 67.5683
CA -8.03534 -27.4034 71.2912
CA -1.67695 -9.39541 68.4236
CA 0.414288 10.2356 45.5557
CA -31.6207 -19.4473 53.1412
CA 16.1218 -16.7289 46.3098
CA 0.325223 -4.09018 48.8091
CA -23.08 -34.5221 57.6156
CA -22.4407 -25.5943 80.7324
CA -9.1237 -0.887533 55.1544
CA -18.6459 -22.4716 66.8554
CA -7.30848 -0.341941 44.1621
CA 7.0108 7.15133 51.5763
CA 4.70778 -14.2649 60.1587
CA -21.5112 -21.0381 50.471
CA -35.6342 -21.519 62.4356
CA -13.3185 -40.6057 74.0913
CA -11.554 -41.4779 73.6842
CA 8.00963 -24.5727 83.5324
CA -7.41203 -8.55423 28.608
CA -17.0066 -17.9541 53.5352
CA -6.85328 -5.25637 43.4136
CA -6.26339 -14.4943 76.558
CA -15.4954 -4.63157 56.9861
CA -0.187375 6.10856 50.2179
CA -16.8754 -31.3938 84.6545
CA 4.10893 -21.7418 54.2508
CA 0.422544 0.306473 50.7168
CA 1.35018 -19.4143 36.1202
CA -17.0088 -33.1977 46.7872
CA -18.6299 -22.3769 62.4465
CA -14.2244 -0.0696358 59.3674
CA 6.58096 -36.6598 74.4166
CA 8.43591 -32.128 70.71
CA 1.96751 -23.6779 66.1239
CA -1.52104 -38.4438 45.6482
CA -29.3756 -20.5575 54.6004
CA -20.2908 -11.1386 55.1682
CA -14.1815 -37.2309 56.4359
CA 16.7606 -25.334 52.4214
CA -14.7821 7.2722 50.5051
CA -19.6265 -12.6617 70.4911
CA 13.0503 -12.7239 66.929
CA -0.865478 -17.272 9.34702
CA -21.982 -19.9784 45.2351
CA 8.14831 -29.3716 67.4275
CA -2.15469 -10.8731 86.4782
CA -6.49948 -43.9203 71.3026
CA -0.846607 2.52179 51.6691
CA 8.76444 -16.0829 58.1011
CA -11.1186 -37.7679 53.8636
CA -33.7885 -25.6694 47.161
CA 16.3428 -12.0718 58.1637
CA -18.9204 -20.6568 57.9757
CA -23.9387 -19.4339 75.5281
CA -13.6733 -34.7696 87.1196
CA -23.2395 -23.1815 50.1115
CA -32.0708 -26.1748 55.5079
CA -8.24118 -39.7798 29.5151
CA -25.3664 -5.5866 58.1542
CA 9.53776 7.38317 73.2357
CA -19.225 -5.64722 68.1297
CA 0.847193 -22.318 61.1869
CA -2.56737 -25.6539 52.3087
CA -14.5325 -10.4747 36.1488
CA 18.8452 -8.93242 61.8997
CA -13.4564 -32.0489 83.7307
CA 4.69374 6.48831 71.7135
CA -0.348953 -33.8407 76.6728
CA 3.59316 -32.3449 42.6602
CA 10.6971 -9.31579 65.5208
CA -31.8724 -21.585 67.3663
CA -19.4838 -18.842 86.5662
CA -5.96996 -16.2573 7.56795
CA 4.15801 -36.1026 62.555
CA -1.07111 -19.7408 61.8387
CA -12.4974 -37.614 73.6953
CA -4.90822 -8.15998 67.6669
CA -32.9402 -16.5519 57.9609
CA 9.08285 -18.8079 69.9531
CA -34.1488 -28.459 54.023
CA -9.48162 -30.8656 74.105
CA 4.7872 12.0764 46.7983
CA -20.9925 -9.24104 56.2154
CA 2.00875 -14.6238 70.0689
CA -23.719 -10.3055 60.1025
CA -15.5558 -41.0149 78.2727
CA 2.00241 -21.9889 92.6646
CA -34.6563 -30.2988 55.1001
CA -7.33283 -23.653 62.874
CA 5.89093 -30.0518 76.4198
CA -23.3519 -7.5285 74.2913
CA -11.7554 -18.5387 73.1812
CA -4.77239 -14.2515 27.4257
CA -4.71912 -29.6051 45.6529
CA -22.0371 -10.1454 69.7321
CA -0.942867 -12.5985 89.8077
CA -29.5013 -21.3728 70.4409
CA 5.80718 -1.07051 75.584
CA -7.86239 -40.9796 75.0996
CA -11.5571 -2.73721 55.2685
CA -15.3522 -22.7642 61.2875
CA 0.400728 -20.1434 63.3573
CA -21.459 -11.6446 71.7246
CA 12.4325 -24.0421 51.3941
CA -8.75906 -26.7028 54.311
CA 5.7579 -19.1032 60.2973
CA -1.68195 -1.99645 47.0073
CA -35.3379 -25.467 61.4818
CA -5.92173 -1.00709 42.7573
CA -13.9932 -20.1969 50.1935
CA -7.87569 -18.5309 28.1645
CA -4.12578 -33.6323 77.1888
CA -23.0095 -7.04686 76.2814
CA 9.26725 -26.0707 57.0809
CA -7.55258 -40.8658 65.2796
CA 6.32765 7.07975 44.9363
CA -16.1612 -35.3932 52.8037
CA 6.29365 -14.7993 59.1771
CA -8.20412 2.20361 48.0288
CA -14.5278 -26.1265 51.1142
CA -13.0068 -34.1761 36.2362
CA -14.4327 -17.554 75.4551
CA -23.2689 -23.7313 58.1632
CA 8.34179 -17.6276 62.6452
CA -19.8028 -8.97033 54.6818
CA -2.79372 -35.5796 82.7225
CA -2.44493 -16.3081 9.58941
CA 6.1033 -38.6316 61.4285
CA -6.08873 -41.6926 66.3945
CA -8.31237 -18.514 42.4089
CA 1.1302 -19.2026 15.5209
CA -3.10959 -9.18086 47.5096
CA 8.37046 -33.3566 58.986
CA -13.977 -2.70183 54.7755
CA 2.15806 -10.2764 61.0151
CA -24.8812 -20.1672 51.4216
CA -9.05781 -34.8825 76.4936
CA -28.5273 -22.9675 64.28
CA 7.80782 -32.1251 46.885
CA -4.94113 -18.7563 66.6467
CA -13.1772 -33.3145 57.2822
CA -30.7763 -19.5037 56.2056
CA -11.9668 -36.3129 75.6943
CA 14.5378 -9.38724 61.1964
CA -37.1266 -23.8399 65.7903
CA -21.4248 -26.2571 77.5228
CA 0.3027 -11.5354 87.9983
CA -29.9376 -17.6022 62.5048
CA 9.49412 -10.9897 66.6881
CA -25.2051 -8.24752 71.7854
CA 2.59332 -20.9628 50.2997
CA -9.33057 -7.85813 50.5843
CA -11.3749 -42.4695 77.5764
CA -19.3306 -26.2035 52.1732
CA -14.6754 -10.8155 33.7487
CA 2.14202 -24.1553 73.984
CA -29.8951 -20.2647 75.5504
CA -10.9268 -38.1452 70.3646
CA -24.2005 -16.3924 53.8974
CA -6.8821 -3.43611 44.4702
CA -3.24039 -24.623 16.5378
CA -9.67772 -9.39588 79.2843
CA -1.37229 -16.2326 32.3604
CA 1.08959 -16.5762 70.642
CA 0.668169 -20.7535 29.6823
CA -9.4692 -1.94838 49.5483
CA -20.4689 -26.6615 68.4185
CA -24.9945 -13.7481 70.6648
CA -5.39224 -9.72829 60.0258
CA -20.3721 -18.4213 56.2512
CA 1.45941 -20.9603 86.4442
CA -6.62763 -42.6505 62.9798
CA 10.6432 -28.6644 71.2188
CA -10.5811 -18.3261 74.6822
CA 6.26979 -21.875 85.648
CA 2.70629 -19.4304 57.7283
CA -11.7858 -13.2896 75.4055
CA -6.81763 -36.3344 44.2417
CA 8.89417 -30.5287 41.2392
CA 6.11657 1.08196 71.8614
CA -11.9846 -42.115 75.7641
CA 2.77698 -21.2501 61.2936
CA 17.4015 -20.1248 43.4453
CA -4.44649 -36.5975 81.0976
CA -10.8948 -34.8606 38.2853
CA -5.83143 -4.19078 58.2059
CA -10.7996 -11.6986 49.9235
CA 13.6214 -25.3453 48.8802
CA -22.4929 -20.5088 62.3545
CA -4.19993 0.519374 46.1881
CA -11.2248 -22.0517 57.5377
CA 9.59447 8.29013 70.4615
CA -9.65812 -3.35673 51.6692
CA 2.21052 -23.5762 17.1229
CA -4.3151 -34.9853 68.6502
CA -4.20039 -41.8194 73.0475
CA -18.859 -32.2984 52.7935
CA -10.0234 -35.4123 49.5376
CA 1.2371 -17.764 33.4062
CA -9.47571 -12.5689 79.0467
CA -1.09514 -29.3722 58.9239
CA -2.36161 -21.3142 62.8069
CA 0.23082 -24.7062 77.7489
CA -10.4182 -23.8094 64.19
