489

CA -20.0676 -21.3646 54.0805
CA -11.9379 -5.32347 53.5706
CA -12.9433 -7.90165 56.0356
CA -5.16685 -24.2406 77.787
CA 4.02971 -30.3798 62.4878
CA -29.518 -1.71717 50.7106
CA -18.3579 -27.1279 80.5413
CA -11.8867 -23.9599 60.6628
CA 10.5434 -8.71044 71.4557
CA -11.7221 -22.7428 38.9926
CA -25.6197 -16.4131 73.704
CA 6.22534 -9.21817 68.6121
CA -11.84 -28.5054 46.6921
CA -13.0691 -6.93871 38.3903
CA -1.19432 1.81765 56.2479
CA -3.30819 -35.342 43.0994
CA 2.95952 -36.5681 45.3427
CA -0.0975392 -18.971 81.274
CA -8.60827 -5.88994 65.1072
CA -9.82681 2.65367 49.2109
CA 2.07862 -35.234 50.5709
CA -11.1556 -7.22857 57.5268
CA -8.25679 -39.9824 49.9439
CA -3.80814 -45.2402 71.6303
CA -6.06944 -19.836 35.9278
CA -1.38138 4.52891 56.3054
CA -34.7844 -25.8775 57.8849
CA 1.64695 -19.1662 38.2909
CA -11.1927 -26.904 51.5448
CA -14.627 -19.482 39.9988
CA -18.4105 -17.0317 42.0596
CA -6.64342 -20.8522 45.5666
CA -19.6095 -22.6991 82.0535
CA 11.8111 -0.766669 75.1696
CA 17.6833 -21.5 40.9791
CA -0.70187 -15.9869 37.4386
CA 3.08702 -20.8155 77.3964
CA 11.3396 -18.9766 58.022
CA 3.64342 -13.8132 67.6308
CA 7.35175 -23.5158 50.2737
CA -5.67381 -24.0433 22.4653
CA -9.63349 2.89946 46.7365
CA -15.4205 -5.9475 57.2633
CA -9.99103 -14.046 32.7218
CA 9.71849 -2.38031 70.8838
CA -10.9307 -14.2165 57.1737
CA -18.4364 -14.3491 37.5596
CA 13.1435 -31.013 69.105
CA -23.047 -18.9432 78.5669
CA -5.93645 -37.4914 43.0712
CA -21.7437 -21.5753 80.08
CA -18.7367 -30.9424 52.4912
CA -14.3162 -24.6827 44.1584
CA -20.295 -25.9939 62.2946
CA 4.94301 -39.3181 50.0375
CA -3.74309 -32.604 42.8654
CA -3.17067 -23.8119 43.3881
CA 6.11235 0.939236 69.8048
CA -28.7021 -27.7471 58.9985
CA -11.3626 -36.3158 80.5481
CA -1.27293 -18.5868 66.1046
CA -21.0697 -0.817897 50.7566
CA -23.3234 -32.1103 72.8631
CA -24.0725 -18.0162 76.9081
CA -10.6609 -13.7907 72.6343
CA 1.53627 -5.16488 56.8646
CA -5.09796 -17.2484 11.0481
CA -21.4539 -26.7532 41.9871
CA -19.7379 -43.0325 51.9553
CA -20.9717 -32.4696 56.2597
CA -15.9029 -37.7213 47.0406
CA -25.973 -9.42925 51.9944
CA -1.93408 -14.0823 92.5638
CA -11.911 -0.991244 51.975
CA -20.8273 -12.8939 61.4281
CA -21.8423 -31.8073 70.9302
CA 3.06501 -21.7132 63.935
CA -17.1329 -19.3283 47.9112
CA -13.9141 -19.7171 75.5486
CA 3.24034 -26.5249 61.9094
CA -30.9481 -20.5484 55.8739
CA 0.504953 -32.3625 77.5047
CA -23.4672 2.21621 48.357
CA -11.4376 -6.5234 64.0755
CA -6.91623 -36.0477 50.6943
CA -3.85872 -21.6223 45.1466
CA 4.40079 -28.3886 49.3918
CA -12.1091 -34.6308 67.9751
CA -15.9447 -10.0519 39.0328
CA -16.0745 -36.4924 67.1182
CA 4.70225 -2.72161 43.8116
CA -7.19882 -19.4727 34.3098
CA -24.9883 -19.9788 65.4002
CA -10.9746 -37.9564 51.869
CA 5.26288 -30.0063 84.7371
CA -21.8079 -9.6022 74.6378
CA -26.1483 -18.5819 67.4423
CA -10.0789 -35.4926 79.391
CA -26.1353 -37.4191 55.4524
CA -28.9719 -26.1669 57.5327
CA 5.32692 -18.4609 64.8249
CA -16.8582 -1.52339 55.549
CA 2.65989 9.10905 47.8314
CA -22.6766 -15.7029 74.8853
CA 15.9111 -8.52729 72.7792
CA -9.72644 -40.8904 76.356
CA -7.50834 -33.5527 79.8762
CA -27.5791 -8.02919 56.4317
CA -24.3849 -31.0982 42.4279
CA -22.78 -10.7432 48.4845
CA -8.26994 -47.7057 69.7986
CA -5.41044 -30.4753 57.5313
CA 3.16454 -13.4416 62.9504
CA -27.4321 -29.154 68.0384
CA -23.4098 -8.2598 71.0432
CA -10.8349 -38.3382 64.9788
CA -6.37773 5.86422 48.2811
CA -1.68664 -26.9767 47.3741
CA -12.5008 -26.5993 63.5961
CA -17.3428 -33.2298 84.2566
CA 5.83044 -16.9267 52.2042
CA -10.6939 -5.56895 35.3944
CA -31.1136 -19.9953 64.1479
CA 10.6553 -33.4806 41.1341
CA -20.7392 -6.1652 54.0026
CA -5.0772 -24.6684 45.6671
CA -31.0694 -31.8358 75.4339
CA -18.9169 -35.184 47.2187
CA -15.0097 -14.285 44.0446
CA 10.5344 -4.32258 69.3847
CA 17.3718 -21.8433 45.52
CA -20.3363 -25.6558 51.9914
CA -2.3409 -16.5822 68.8199
CA 8.86711 -34.4651 61.4512
CA -15.4875 -33.3386 79.1244
CA -0.705312 -33.5767 55.7443
CA -23.0951 -22.1757 73.4981
CA -3.82951 -36.5655 57.5132
CA 0.190877 -14.8073 90.4043
CA 2.75862 -37.4527 54.6018
CA 12.3981 -23.2319 49.5116
CA -26.706 -1.91301 47.551
CA -6.23879 -21.0096 83.0672
CA -15.9725 -31.6048 59.2083
CA -7.45189 -22.0184 34.1162
CA -7.375 -3.84341 65.764
CA -0.716228 -23.8383 49.7305
CA -0.719713 -19.5782 15.2223
CA -14.2736 -31.8769 85.3466
CA -0.570797 -20.6405 38.0473
CA -3.61845 -13.9205 15.5469
CA -8.44533 -34.7188 82.4295
CA 4.53557 -28.3145 59.8385
CA -7.33792 -14.6818 83.7104
CA -0.821745 -12.2994 88.7681
CA 1.55078 -13.1552 89.5607
CA -4.36708 -8.08542 41.6498
CA 8.46814 -29.5457 43.3679
CA -12.5588 -35.2504 53.3224
CA -10.5141 -15.4039 67.4648
CA -13.7718 -7.31545 60.8878
CA -30.1407 -8.0245 56.6131
CA -14.7958 -11.3071 40.5516
CA -25.039 2.42597 75.6205
CA -24.5818 -29.3254 84.8998
CA -10.3204 -36.1164 72.6155
CA -22.9395 -31.1259 80.7759
CA -13.0759 -17.7107 61.5914
CA -12.8474 -15.6704 58.2974
CA 2.58513 -34.5525 47.5954
CA 8.22822 1.36664 75.3221
CA -5.49604 -11.8527 11.5022
CA 7.64479 -30.2552 62.6759
CA -3.37639 -31.7366 59.4643
CA -7.67333 -11.5468 61.4559
CA 3.93059 -20.6904 84.6803
CA 1.76941 2.47147 68.3294
CA -6.08732 2.47333 58.2968
CA -24.0124 -20.6013 52.8639
CA -22.8688 -9.29598 50.5829
CA -10.4891 -27.2488 73.7471
CA 2.59259 -1.70433 43.3862
CA 1.2747 -20.5033 10.5821
CA 16.9486 -18.1956 44.1614
CA -5.1742 -10.0547 44.9651
CA -4.52121 -20.8866 78.9389
CA -32.0127 -27.7049 75.3844
CA 5.36151 -20.1275 67.1372
CA -11.9827 -3.6128 55.8274
CA -26.1407 -18.447 51.5127
CA -24.9723 -2.57158 44.7231
CA -12.4341 -11.2513 70.4223
CA -5.67329 -20.8817 60.9541
CA 5.00888 -33.2451 51.9153
CA -10.222 -39.653 68.7503
CA 12.5636 -27.8561 41.2087
CA -11.2158 -34.7411 85.8448
CA -15.1271 -36.118 58.0952
CA -4.19358 -12.4095 62.0478
CA -8.33744 -22.3024 67.3695
CA -20.6065 3.59574 61.0947
CA -16.7684 -26.7956 45.2009
CA -18.1975 -26.5268 64.5386
CA -11.6708 -13.7435 36.6008
CA -21.8061 -1.11701 55.2573
CA -21.907 -4.60976 50.3217
CA -20.1182 -10.4295 73.0127
CA 2.20192 4.58928 69.8815
CA -21.3714 2.03391 60.0927
CA -9.4903 -17.6494 62.6238
CA -19.0979 -31.9556 49.8546
CA -0.0467534 -4.5522 55.998
CA 9.90486 -31.731 59.9286
CA -29.7194 -33.6308 55.7225
CA -4.71111 -14.9293 75.3987
CA 6.74411 -21.4707 53.3502
CA 2.56077 -11.8661 87.9714
CA 3.50958 -21.8154 58.4594
CA -6.01261 -23.9316 17.7771
CA -12.7099 -43.9712 60.4985
CA -1.85224 -24.894 48.806
CA 4.76636 -4.93171 78.4508
CA -20.8377 -15.3795 77.1801
CA -13.8926 -31.164 55.9398
CA -12.7409 -24.6169 49.3891
CA 12.879 -32.3424 37.5041
CA -4.41997 -19.4093 55.624
CA -0.329521 -35.5947 59.5815
CA -6.94296 -0.18371 44.2003
CA -3.12879 1.11517 51.8955
CA 3.16486 1.66678 72.2785
CA -11.7408 -27.1804 61.5218
CA -7.82337 -20.7605 26.4051
CA 9.94208 -10.7199 67.4956
CA -23.1288 -25.463 76.8421
CA -2.20687 -24.4255 34.3283
CA -20.0035 -11.4764 65.2062
CA -14.5414 -44.2027 62.9074
CA -32.3942 -27.0249 57.7203
CA -19.3172 0.0692384 64.172
CA -8.41039 -45.3856 65.2996
CA -11.6892 3.86002 45.5644
CA 1.59745 -16.8448 86.4963
CA 0.805076 -22.0636 79.6217
CA -6.76153 -15.5684 86.2071
CA 12.6931 -36.0525 39.1396
CA 13.7662 -16.7812 45.934
CA -3.61657 -1.71742 57.3479
CA -22.767 -29.7885 76.7211
CA -7.06268 -44.7721 74.5994
CA -4.47312 -33.3467 78.5254
CA -23.976 -30.9675 49.2749
CA -2.74584 -16.1746 74.2801
CA -5.4634 -28.0175 77.8839
CA -25.9075 -4.38941 72.7178
CA -26.7006 -5.07065 48.1145
CA -0.199632 -16.5272 48.9679
CA -4.99696 -8.72029 64.9531
CA 10.1768 -5.63037 70.9211
CA -6.83005 -9.01424 50.2301
CA -5.96008 -20.8122 43.5001
CA -16.0278 -36.1221 45.7825
CA -7.30571 -21.3607 56.4329
CA -7.43387 -33.6979 83.7534
CA -0.889648 -30.0763 70.8958
CA -16.4123 -16.4074 72.0912
CA -21.9328 -17.922 41.1057
CA 1.93739 -28.8785 66.709
CA -2.44498 -9.65887 60.1186
CA -6.35327 -42.2105 70.0288
CA 15.6646 -27.146 43.762
CA -6.01282 -19.6 5.41114
CA -12.5895 -23.8351 47.6113
CA 9.31942 -19.6208 57.2481
CA -21.264 -14.5817 70.0987
CA -1.44989 -19.8454 36.3947
CA 12.1016 -25.4797 43.5559
CA -3.65554 -12.4691 11.4021
CA 1.95163 -17.9638 53.5997
CA -0.107118 -13.2337 91.4231
CA 5.38851 4.82715 71.681
CA -6.62937 -44.459 71.9216
CA -18.6325 -19.184 45.72
CA -6.99332 -42.6647 72.6273
CA 0.335726 5.39226 48.4603
CA -8.03534 -27.4034 71.2912
CA -14.005 -24.526 76.9842
CA -27.3578 -15.6425 64.4514
CA -27.5388 1.06711 52.5446
CA 16.1218 -16.7289 46.3098
CA -11.1042 -25.196 71.3767
CA -3.1211 -1.19084 44.3883
CA 12.6048 -31.2188 40.1215
CA -9.1237 -0.887533 55.1544
CA -7.46528 -9.30459 57.0643
CA -25.6358 4.17137 72.8412
CA -12.6672 -11.1253 30.4796
CA -6.66935 3.52413 46.1073
CA -1.57295 -35.7937 53.3726
CA -22.6083 -3.96819 68.9127
CA -14.8327 -40.0298 72.3201
CA -0.121544 -19.1814 10.1161
CA 9.01565 -37.8686 49.8144
CA -5.08738 -23.5456 82.157
CA -0.0744998 -21.6023 59.3587
CA -25.139 -15.8911 55.8573
CA 1.20157 -14.8387 12.0303
CA -25.5152 -2.04175 42.9698
CA -27.6079 -13.7387 64.3085
CA 15.044 -32.1607 70.0732
CA -8.42882 -24.8684 34.8918
CA 7.69982 -10.5652 69.2979
CA -20.4122 3.66038 66.2274
CA -29.7146 -10.0327 53.165
CA -2.83724 -26.7585 50.4311
CA -24.4569 -25.6623 65.2346
CA 0.241813 -13.2054 11.0632
CA -10.7239 -20.2274 78.0825
CA -28.6713 -29.1214 63.713
CA 5.54047 -21.5499 87.4793
CA -26.8303 -12.7746 55.2419
CA 1.14001 2.21369 47.0841
CA -11.2601 -23.9574 75.0598
CA 5.65057 -3.38277 75.6625
CA -5.39119 -10.5599 61.6449
CA -3.86503 -14.0031 12.6738
CA -22.6698 -25.6945 80.7275
CA -25.2216 -32.2377 53.8268
CA -18.9195 -0.391181 57.0602
CA 8.14831 -29.3716 67.4275
CA 1.89429 -31.4163 64.7987
CA -8.12427 -43.5636 65.3618
CA -0.846607 2.52179 51.6691
CA -20.5187 -23.2225 48.2608
CA -8.605 -34.4283 45.7651
CA 0.174394 -31.6505 46.3171
CA -8.01168 -28.9889 77.688
CA -8.4032 2.84592 45.3403
CA -16.8396 -29.3918 48.6514
CA 17.326 -9.67821 70.7285
CA -18.5188 -10.7979 59.8026
CA -32.0708 -26.1748 55.5079
CA -19.6164 -32.6866 79.8977
CA -9.91335 -21.4568 39.6292
CA -22.0108 -15.3695 66.0536
CA -3.6107 -5.79307 48.8352
CA -25.3548 -13.899 60.0537
CA -6.79162 -20.6298 78.5621
CA -16.7782 -16.5925 86.5408
CA -19.7325 -29.1394 40.7331
CA -20.5366 -34.7899 43.9814
CA -10.2784 -6.11894 62.1177
CA -7.33389 -32.7985 74.5995
CA -6.27689 -20.4416 7.75949
CA -23.9064 -9.76962 58.3594
CA 1.79183 -23.178 54.8914
CA -31.3359 -17.0665 54.1715
CA 5.05656 0.512619 72.4254
CA -10.3016 -31.0359 77.6547
CA -0.644955 -5.50013 50.8049
CA -29.6857 -27.953 73.9937
CA -26.6539 -24.2713 67.1956
CA -9.98015 -32.1013 83.7529
CA -19.1635 -36.4915 54.3426
CA -26.6025 -36.3534 52.3459
CA -5.9051 -29.602 50.6038
CA -14.3456 -36.5958 56.0311
CA -10.8677 -42.9433 63.1302
CA -27.8399 -24.4883 58.9689
CA -21.4844 3.62937 72.8927
CA -22.3705 -7.00357 72.4093
CA 6.38274 7.16164 48.5877
CA 1.20956 -39.3784 54.661
CA -9.37526 -15.5347 38.5665
CA -18.6429 -29.8496 68.2479
CA -5.60818 -26.3224 79.9565
CA -17.3545 -15.827 75.8205
CA -13.9143 3.84074 52.4789
CA -7.24946 -26.2839 53.3779
CA -14.9892 -12.6213 76.1814
CA -21.8073 -40.9378 51.9035
CA -9.00919 -6.32806 53.1882
CA -15.577 -11.9208 61.208
CA -19.5468 -30.637 77.5382
CA -4.5298 -16.7328 69.0252
CA -7.21861 -31.5706 48.188
CA -3.55681 -23.1156 35.3475
CA -9.58834 -29.5537 73.6175
CA 8.54245 -4.45656 67.6197
CA -24.5007 -26.7072 63.3578
CA 6.29795 -25.8249 85.7179
CA -1.68195 -1.99645 47.0073
CA 4.52888 5.15688 44.7253
CA 4.76885 -36.5768 60.538
CA -9.73735 -30.3597 84.4219
CA -10.5163 -44.1413 67.7787
CA 6.47059 -19.9686 54.5016
CA -14.0928 -29.2773 66.1367
CA -18.672 -30.3818 82.2508
CA -9.74588 -13.951 65.6296
CA 15.5744 -23.0082 40.7755
CA 15.8955 -26.9858 48.0053
CA -12.9163 -29.5236 80.9297
CA -15.9075 -38.752 68.5715
CA -23.2428 -16.7834 65.0578
CA 12.9133 -5.05524 68.3293
CA -16.4745 -21.1716 57.6924
CA -23.2689 -23.7313 58.1632
CA -22.718 -31.5493 50.4851
CA 11.8837 -7.43548 71.6482
CA -19.5818 -25.453 56.5448
CA -12.6727 -9.29019 71.1894
CA -2.66356 -31.4891 83.3448
CA -11.509 -12.0267 37.8096
CA -18.1854 -34.9239 49.9731
CA -18.2881 -38.6763 69.3602
CA 5.36336 -11.6181 71.5626
CA 8.37046 -33.3566 58.986
CA 3.89743 -2.28629 77.7653
CA -4.63962 -21.0659 67.3116
CA -21.4663 -22.4052 51.3961
CA 5.34227 -18.8912 71.6487
CA -12.2767 -38.174 45.3519
CA 7.80782 -32.1251 46.885
CA -12.0045 -29.0004 79.0417
CA 4.93822 -23.267 76.3857
CA -18.8249 -8.85755 49.8663
CA -2.07945 -19.8566 30.3396
CA -6.72071 -24.69 48.4483
CA -11.9749 -19.4961 58.6981
CA -29.9567 -14.8927 55.3339
CA -12.5955 -14.6844 42.1863
CA 5.4081 -22.6777 64.9058
CA -26.5193 -16.6089 53.5975
CA -20.9728 -23.372 76.6992
CA -7.76771 -23.0361 58.2993
CA -3.01074 -25.1714 72.4213
CA -18.3348 -33.1309 70.1075
CA -34.5867 -26.6136 52.1062
CA -13.3501 -30.9919 53.9028
CA -17.8846 -20.0655 86.1137
CA -5.78108 -29.5988 44.9239
CA -26.7112 -9.98494 54.2438
CA -22.8411 -10.6565 56.0277
CA 0.770924 -16.6075 46.2755
CA -3.24039 -24.623 16.5378
CA -15.9829 -33.3314 81.2501
CA -27.8598 -23.8571 71.9353
CA -4.88579 -17.2025 83.1365
CA -17.8397 -39.0473 71.1756
CA -8.73066 -38.9113 42.9745
CA -25.3452 -1.66952 75.4503
CA -3.40039 -11.4911 59.9853
CA -5.39224 -9.72829 60.0258
CA -9.08547 -3.90155 37.3664
CA -11.51 3.05197 52.7917
CA -17.4094 -20.621 51.0579
CA 1.64265 -32.5122 55.5157
CA -30.9894 -25.9383 56.9656
CA 12.3313 -14.8826 55.516
CA -23.3701 -28.5174 41.7074
CA 4.84521 4.37062 47.9152
CA 6.65812 -35.3159 50.036
CA 8.89417 -30.5287 41.2392
CA -12.7077 -19.5985 49.7733
CA -0.296649 3.7768 58.0036
CA -9.87531 -38.2556 49.1157
CA 2.98302 -24.4536 86.6555
CA -12.3489 -13.8965 58.2377
CA -6.69624 -30.3514 46.887
CA -0.048857 -36.6287 55.4859
CA -23.0504 -26.3825 61.9517
CA -2.44201 -18.7587 45.6806
CA -12.9275 -33.1831 82.3214
CA -16.0015 -33.9965 57.3641
CA -11.2248 -22.0517 57.5377
CA -6.14266 -23.6676 29.3183
CA 4.95449 8.33377 47.5421
CA -10.0196 -2.03349 36.9519
CA -18.5468 -36.8639 69.8434
CA 15.5767 -35.3281 34.6235
CA -14.9791 -33.1107 50.39
CA 19.258 -26.6782 41.1739
CA 5.23749 4.91458 51.1728
CA -6.60753 -19.1378 65.9975
CA 4.06008 -23.6189 78.1641
CA -3.10793 -4.08926 48.3836
CA -3.31243 -26.8919 78.0569
CA -19.7108 1.45015 75.0721
