489

CA -20.0676 -21.3646 54.0805
CA -17.7015 -13.5292 66.1635
CA 5.23879 -18.7946 48.5749
CA -30.5698 -22.9164 54.4121
CA 4.02971 -30.3798 62.4878
CA -29.518 -1.71717 50.7106
CA -18.3579 -27.1279 80.5413
CA 2.46836 -17.7598 87.8114
CA 10.5434 -8.71044 71.4557
CA -11.7221 -22.7428 38.9926
CA -25.6197 -16.4131 73.704
CA 1.82597 -30.1674 71.2573
CA -8.3097 -18.709 31.0849
CA -13.0691 -6.93871 38.3903
CA 8.36296 -30.1494 40.1784
CA -3.30819 -35.342 43.0994
CA 2.95952 -36.5681 45.3427
CA -23.1427 -22.8756 53.2694
CA -7.7224 -32.384 71.5816
CA -9.82681 2.65367 49.2109
CA 2.07862 -35.234 50.5709
CA -11.1556 -7.22857 57.5268
CA -8.25679 -39.9824 49.9439
CA -29.0598 -36.1752 58.6365
CA -28.7938 -35.1619 52.8433
CA -1.38138 4.52891 56.3054
CA 6.25846 -33.4151 63.8205
CA -14.8597 -4.34661 63.5031
CA -25.1552 -17.288 66.8962
CA -14.627 -19.482 39.9988
CA -18.4105 -17.0317 42.0596
CA -24.0482 -21.2655 68.4036
CA -19.6095 -22.6991 82.0535
CA -12.549 -24.1624 64.3884
CA -22.8683 -16.3238 74.6881
CA 0.216458 -9.75363 65.4037
CA 3.08702 -20.8155 77.3964
CA 11.3396 -18.9766 58.022
CA 3.64342 -13.8132 67.6308
CA 7.35175 -23.5158 50.2737
CA -5.67381 -24.0433 22.4653
CA -29.2343 -20.146 52.8101
CA -15.4205 -5.9475 57.2633
CA -9.99103 -14.046 32.7218
CA -6.0964 -8.8982 54.7056
CA -5.83984 -21.4935 26.0931
CA -18.7723 -31.3458 57.4092
CA 13.1435 -31.013 69.105
CA -23.047 -18.9432 78.5669
CA -15.6285 -25.9218 51.6948
CA -7.36196 -38.3514 77.9476
CA -24.078 -22.2675 70.0055
CA -27.5615 -13.7932 55.8364
CA 4.9118 -17.2765 50.1852
CA 4.94301 -39.3181 50.0375
CA -15.2755 -43.6015 65.5338
CA -4.43338 -26.6217 47.3311
CA -12.8196 -36.137 49.9243
CA -17.5757 -39.0598 49.0675
CA -1.71296 -18.3064 76.9941
CA -4.9039 -13.8967 69.4173
CA -12.9766 -44.8393 69.6155
CA -15.5467 -33.5251 46.574
CA 7.43167 -25.1495 84.8941
CA -6.11299 -18.7363 67.6865
CA 1.53627 -5.16488 56.8646
CA -5.09796 -17.2484 11.0481
CA -21.4539 -26.7532 41.9871
CA -16.8059 -3.66759 59.4283
CA -20.9717 -32.4696 56.2597
CA -1.07697 -15.8555 71.1692
CA -25.973 -9.42925 51.9944
CA -1.93408 -14.0823 92.5638
CA -8.94968 -28.2416 58.2071
CA -20.1643 -16.239 45.9877
CA 1.03026 -13.5277 8.6617
CA -6.03812 -2.65813 50.8002
CA -17.1329 -19.3283 47.9112
CA -13.9141 -19.7171 75.5486
CA 3.24034 -26.5249 61.9094
CA -30.9481 -20.5484 55.8739
CA -14.1208 -6.11221 41.9431
CA -8.82291 -35.6427 79.113
CA -11.4376 -6.5234 64.0755
CA -8.39029 -16.5538 61.1986
CA -9.01807 -44.1811 61.0918
CA -7.25917 -36.3649 80.6633
CA -12.1091 -34.6308 67.9751
CA -21.6415 -19.5911 83.8537
CA -9.23012 -1.25497 67.4212
CA 4.70225 -2.72161 43.8116
CA -9.38556 -15.2004 12.6642
CA -10.8535 -26.4018 64.4567
CA -23.2887 -13.238 76.5472
CA 5.26288 -30.0063 84.7371
CA -0.928621 3.84073 74.071
CA 0.670462 -1.9146 47.9101
CA -17.3087 -22.2486 36.6684
CA -26.1353 -37.4191 55.4524
CA -28.9719 -26.1669 57.5327
CA 8.23161 -8.22038 75.5557
CA -17.4962 -42.9254 62.9375
CA -33.9757 -24.7785 49.784
CA -28.4984 -8.92159 54.5996
CA 15.9111 -8.52729 72.7792
CA -9.72644 -40.8904 76.356
CA -21.81 -22.1226 74.8266
CA -8.60616 -36.463 44.0274
CA -4.20152 -8.86771 49.3357
CA -22.78 -10.7432 48.4845
CA -1.55754 -22.6763 9.26741
CA -5.41044 -30.4753 57.5313
CA 7.43326 -11.5988 71.0021
CA -27.4321 -29.154 68.0384
CA -23.4098 -8.2598 71.0432
CA -0.429645 -30.1048 65.7892
CA -12.3188 -3.7549 51.5956
CA 3.80294 -21.3444 89.0045
CA -12.5008 -26.5993 63.5961
CA -6.26111 -25.4849 82.9858
CA 5.83044 -16.9267 52.2042
CA -8.02095 -27.6612 61.1012
CA 9.64991 -29.9273 58.7887
CA -16.8003 -20.7265 77.9133
CA 1.83657 -20.6522 70.4429
CA -5.0772 -24.6684 45.6671
CA -11.0707 -18.3077 23.8833
CA -18.9169 -35.184 47.2187
CA -17.1408 -30.3027 66.4105
CA 0.996207 -23.0489 87.4309
CA 17.3718 -21.8433 45.52
CA -31.0307 -27.5178 77.1184
CA -2.3409 -16.5822 68.8199
CA 8.86711 -34.4651 61.4512
CA -15.4875 -33.3386 79.1244
CA 3.82294 -34.4685 57.5851
CA -23.0951 -22.1757 73.4981
CA -28.514 -21.5504 70.085
CA -13.6411 -34.4321 44.6944
CA 2.75862 -37.4527 54.6018
CA 12.3981 -23.2319 49.5116
CA 13.6242 -28.733 56.6525
CA 1.5691 -1.10345 77.7887
CA 13.5949 -27.4974 67.8349
CA -7.45189 -22.0184 34.1162
CA -3.61735 -17.1717 27.4969
CA -0.716228 -23.8383 49.7305
CA -0.719713 -19.5782 15.2223
CA -31.175 -4.36291 52.0854
CA -0.570797 -20.6405 38.0473
CA -3.61845 -13.9205 15.5469
CA -8.44533 -34.7188 82.4295
CA -14.4417 -21.8559 49.9882
CA -18.7167 -24.1454 60.9923
CA 1.95717 -18.0907 67.1017
CA 1.55078 -13.1552 89.5607
CA -24.1113 -27.6871 79.8392
CA -5.65096 -15.71 78.1111
CA -4.85228 -27.0318 83.1159
CA 6.99375 -42.0398 46.3563
CA -13.7718 -7.31545 60.8878
CA -30.1407 -8.0245 56.6131
CA -15.429 -13.4499 61.2529
CA 12.7092 -19.0056 49.7442
CA -0.134815 -23.2811 37.4071
CA -14.9812 -34.16 52.521
CA -22.9395 -31.1259 80.7759
CA -13.0759 -17.7107 61.5914
CA 8.89936 -7.6576 72.2715
CA 2.58513 -34.5525 47.5954
CA -9.30132 -21.1603 27.8513
CA -10.9761 -21.2566 59.2694
CA -5.28277 -9.60694 39.9494
CA -3.37639 -31.7366 59.4643
CA -16.155 -19.5725 79.9673
CA 3.93059 -20.6904 84.6803
CA 9.54317 -30.875 49.2497
CA -6.08732 2.47333 58.2968
CA -8.13179 -5.78052 64.471
CA -24.713 -46.1111 52.128
CA -10.4891 -27.2488 73.7471
CA -8.75315 -1.36027 57.66
CA 1.2747 -20.5033 10.5821
CA 16.9486 -18.1956 44.1614
CA -5.1742 -10.0547 44.9651
CA -2.61988 -17.2675 51.8189
CA -32.0127 -27.7049 75.3844
CA 5.36151 -20.1275 67.1372
CA -26.704 -2.90357 50.3546
CA -26.1407 -18.447 51.5127
CA -0.0940879 -15.6148 10.4144
CA -19.1585 -31.9556 72.2474
CA -5.67329 -20.8817 60.9541
CA 1.28079 -16.0765 52.8427
CA -10.222 -39.653 68.7503
CA 12.5636 -27.8561 41.2087
CA -29.3189 -24.4347 78.8924
CA 3.37867 -25.9414 52.1192
CA -5.72437 -10.8479 56.6296
CA 12.348 0.216962 68.4839
CA 0.963193 -27.3358 84.4898
CA 12.6164 -15.038 45.6836
CA -34.072 -28.6476 71.7016
CA -25.2759 -30.711 67.4301
CA -6.97197 -18.4839 26.8415
CA 12.2593 -37.5311 46.8142
CA 3.86746 -26.1701 82.9997
CA 4.80324 -27.7082 59.0407
CA -21.3714 2.03391 60.0927
CA -9.4903 -17.6494 62.6238
CA -8.63019 -20.6345 81.4654
CA -22.0763 -12.9112 65.2044
CA -24.6929 -15.5577 77.3428
CA -21.0907 -5.9219 73.7751
CA -4.71111 -14.9293 75.3987
CA -22.6255 2.30146 53.2585
CA 2.56077 -11.8661 87.9714
CA -30.9226 -26.3927 53.163
CA -6.01261 -23.9316 17.7771
CA -27.0075 -27.1856 73.6203
CA -12.8087 -43.2116 68.7846
CA -19.6131 -29.7236 55.1427
CA -20.8377 -15.3795 77.1801
CA -13.8926 -31.164 55.9398
CA -25.6212 -24.3143 51.0369
CA 12.879 -32.3424 37.5041
CA -4.41997 -19.4093 55.624
CA 2.18333 -3.65435 51.9145
CA -15.1908 -26.4962 47.6572
CA -9.94726 -28.3005 69.8113
CA 3.16486 1.66678 72.2785
CA 1.85917 -25.1627 49.8829
CA -7.82337 -20.7605 26.4051
CA 9.94208 -10.7199 67.4956
CA -23.1288 -25.463 76.8421
CA -21.5299 -11.1405 67.7687
CA -2.80704 -27.5404 59.6786
CA -14.5414 -44.2027 62.9074
CA -7.63682 -27.4206 48.3976
CA -19.3172 0.0692384 64.172
CA 2.32198 -32.4512 53.262
CA -29.7361 -9.90974 55.9426
CA -17.3582 -33.0411 53.3244
CA 1.63225 -10.7482 91.4339
CA -6.76153 -15.5684 86.2071
CA 0.980887 -20.67 48.2626
CA -5.19283 -21.6223 29.3597
CA -19.9236 -24.854 50.5666
CA -5.14959 -27.7231 49.5891
CA -15.6017 -18.9733 49.29
CA -23.1887 -1.0356 57.2089
CA -17.797 -32.4797 45.6437
CA -2.74584 -16.1746 74.2801
CA -0.978751 -27.1388 53.1175
CA -25.2719 -16.1043 50.6565
CA 8.15873 -18.0574 54.8396
CA -0.199632 -16.5272 48.9679
CA -15.8606 -23.1184 82.9007
CA -17.3858 -45.8225 63.9999
CA -6.83005 -9.01424 50.2301
CA -1.36042 -17.2452 41.3362
CA -16.0278 -36.1221 45.7825
CA -8.59232 -34.9515 85.0876
CA 3.76323 -30.0729 47.4477
CA -0.889648 -30.0763 70.8958
CA -27.471 -17.4009 54.9405
CA -10.7672 -5.18849 36.6394
CA 1.93739 -28.8785 66.709
CA -2.44498 -9.65887 60.1186
CA 5.32828 -23.6912 47.9179
CA 15.6646 -27.146 43.762
CA -6.37857 -6.97105 37.3185
CA -12.5895 -23.8351 47.6113
CA 9.31942 -19.6208 57.2481
CA -21.264 -14.5817 70.0987
CA -31.974 -24.3771 56.0552
CA -13.2532 -40.0421 53.3631
CA -3.65554 -12.4691 11.4021
CA -6.80044 -22.2542 39.2005
CA -23.9427 -11.6224 71.5456
CA -23.2301 -6.88314 55.7242
CA -29.1436 -10.0857 64.8021
CA -11.6142 -16.1633 61.3841
CA -3.79308 -9.29312 9.22006
CA 0.335726 5.39226 48.4603
CA -8.03534 -27.4034 71.2912
CA -27.3359 -28.634 47.9137
CA -6.41987 -35.8943 71.1644
CA 1.21879 -17.3369 50.603
CA -4.22177 -19.562 31.4767
CA -14.137 -24.9073 48.5363
CA -21.7014 -39.5974 49.0022
CA 12.6048 -31.2188 40.1215
CA -9.1237 -0.887533 55.1544
CA -7.46528 -9.30459 57.0643
CA -3.77247 6.1096 58.3362
CA -17.0158 -34.113 77.6373
CA -6.66935 3.52413 46.1073
CA -23.2085 -5.44736 54.334
CA 4.81315 -22.1948 63.1625
CA -19.8885 -0.167166 46.2746
CA -0.121544 -19.1814 10.1161
CA 11.4449 -27.7012 70.6901
CA 9.32649 -29.9884 50.9538
CA -0.0744998 -21.6023 59.3587
CA -4.0853 -18.2132 79.8902
CA 11.7813 -3.1358 68.7097
CA 3.84554 -26.7671 88.5596
CA -27.6079 -13.7387 64.3085
CA -21.637 -42.5729 53.9196
CA -4.81016 -20.3618 83.4708
CA 7.69982 -10.5652 69.2979
CA -20.4122 3.66038 66.2274
CA 2.81559 -17.4152 47.6441
CA -9.71004 -16.9289 15.4532
CA -20.2515 -44.0236 53.8859
CA 0.241813 -13.2054 11.0632
CA -28.5341 -27.7567 80.6081
CA -15.0226 -7.30336 40.6375
CA 5.54047 -21.5499 87.4793
CA -8.96333 -39.7323 47.1006
CA -2.09875 -0.135853 49.7931
CA -11.2601 -23.9574 75.0598
CA 5.65057 -3.38277 75.6625
CA -8.82 -5.90874 54.0254
CA -25.9734 -12.0212 73.1546
CA -0.044372 -1.8114 50.3518
CA -24.3692 -33.3234 55.2025
CA 3.78067 -7.25443 74.0557
CA 8.14831 -29.3716 67.4275
CA -19.9818 -44.5271 60.1943
CA -4.44909 -32.8749 50.5917
CA -0.846607 2.52179 51.6691
CA -6.35447 -22.0509 69.8031
CA -8.605 -34.4283 45.7651
CA 6.20056 -22.1964 89.8496
CA -11.2241 -7.70544 66.2426
CA 1.0162 -35.2268 65.1815
CA 1.25047 -3.96241 72.7746
CA -0.46128 -26.3667 45.7438
CA -18.5188 -10.7979 59.8026
CA -32.0708 -26.1748 55.5079
CA -13.1003 -3.45006 42.8685
CA -9.91335 -21.4568 39.6292
CA 18.8781 -25.5565 45.0172
CA 9.00375 -1.39867 74.2193
CA 10.2132 -39.6939 51.0239
CA -12.4838 -23.3667 32.2643
CA -26.2285 -29.2016 57.0552
CA -19.7325 -29.1394 40.7331
CA -4.01872 -21.3835 35.8613
CA -12.5878 -23.7438 42.551
CA -7.33389 -32.7985 74.5995
CA -18.8241 -16.7166 35.8787
CA 2.2299 -10.0121 63.7523
CA 1.25941 -33.5471 72.7525
CA -31.3359 -17.0665 54.1715
CA 8.81079 -36.6665 52.1664
CA -24.2048 -30.7297 53.9261
CA -10.1772 -33.1168 83.7143
CA -8.63221 -37.5919 88.7701
CA -26.6539 -24.2713 67.1956
CA 4.12469 -33.9613 48.7256
CA -30.1878 -19.7549 58.76
CA -26.6025 -36.3534 52.3459
CA -5.9051 -29.602 50.6038
CA -14.3456 -36.5958 56.0311
CA -10.8677 -42.9433 63.1302
CA -2.73849 -27.8125 81.9443
CA -16.6245 -47.5968 68.2913
CA -3.24593 -30.5609 50.502
CA -2.29073 -31.7561 71.6497
CA -23.666 -20.203 63.4897
CA -9.37526 -15.5347 38.5665
CA -18.6429 -29.8496 68.2479
CA -24.4386 -36.4438 49.2575
CA -17.3545 -15.827 75.8205
CA -11.7475 3.48984 44.9426
CA -6.55746 -5.29855 44.1896
CA -2.73138 -20.5442 26.4246
CA -29.2109 -26.2756 75.6206
CA -17.0196 -29.1541 70.1202
CA 4.57379 -0.0466931 79.3534
CA -12.1725 -19.0845 77.537
CA -4.5298 -16.7328 69.0252
CA -7.21861 -31.5706 48.188
CA 8.01064 -3.09395 71.8734
CA -3.75201 -12.0325 76.1313
CA -20.2517 -9.27165 66.8646
CA -24.5007 -26.7072 63.3578
CA -11.8439 -4.29638 63.5218
CA -19.4211 -9.06359 68.8949
CA -23.9029 -3.29301 74.1958
CA 4.76885 -36.5768 60.538
CA 6.23806 0.230088 72.1643
CA 2.11113 -19.6683 12.1482
CA -24.1604 -26.051 43.2493
CA -14.0928 -29.2773 66.1367
CA -18.672 -30.3818 82.2508
CA -9.74588 -13.951 65.6296
CA -1.79572 -18.2075 82.2544
CA -1.7073 -20.2747 65.3826
CA 4.82281 -34.2113 53.9923
CA -15.9075 -38.752 68.5715
CA -25.5796 1.24669 54.6823
CA 12.9133 -5.05524 68.3293
CA -22.4691 -1.88557 49.8123
CA 4.0379 -4.79853 71.9338
CA 2.59365 -25.1449 59.5285
CA 4.0499 -28.0285 81.3257
CA -19.5818 -25.453 56.5448
CA -8.83204 -17.8257 36.7113
CA -18.6588 -1.2771 48.832
CA -28.675 -20.9565 68.3221
CA -8.75687 -8.44859 41.2337
CA -3.06623 -21.6806 83.7459
CA -8.47014 -28.979 75.2261
CA -12.7595 -2.30079 37.599
CA -10.9908 -20.4103 36.5145
CA -8.28857 -5.71049 38.3918
CA -21.4663 -22.4052 51.3961
CA -11.0469 -40.2031 63.0163
CA -28.4599 -30.7088 51.721
CA 7.80782 -32.1251 46.885
CA -10.4992 -17.729 50.7084
CA 4.93822 -23.267 76.3857
CA -18.8249 -8.85755 49.8663
CA -2.07945 -19.8566 30.3396
CA -6.72071 -24.69 48.4483
CA -11.9749 -19.4961 58.6981
CA -29.9567 -14.8927 55.3339
CA -12.1066 -38.6132 48.4854
CA -22.9791 -23.6916 85.6576
CA 1.5184 -0.293239 70.9461
CA 1.29989 -19.2821 36.0901
CA -9.26259 -42.0011 49.5423
CA -10.7668 -25.8296 35.0045
CA -18.3348 -33.1309 70.1075
CA -34.5867 -26.6136 52.1062
CA -13.3501 -30.9919 53.9028
CA -24.9925 -25.3724 70.0423
CA -17.2541 -34.5737 48.5777
CA -4.68505 -32.9747 55.4753
CA -14.6179 -18.8173 77.1764
CA 0.770924 -16.6075 46.2755
CA -3.24039 -24.623 16.5378
CA -18.6627 -40.111 57.0538
CA -22.9611 -22.4404 67.4257
CA -4.88579 -17.2025 83.1365
CA 10.488 -39.1718 44.4972
CA 11.2239 -28.369 42.392
CA -25.3452 -1.66952 75.4503
CA -3.40039 -11.4911 59.9853
CA -21.152 -31.8985 74.1548
CA -9.08547 -3.90155 37.3664
CA -11.51 3.05197 52.7917
CA -17.4094 -20.621 51.0579
CA -10.3077 -17.84 84.8465
CA 7.90659 -37.7772 58.5834
CA 12.3313 -14.8826 55.516
CA -8.025 -38.2444 81.6474
CA -1.591 -18.8277 55.7453
CA -20.846 -19.9835 65.6355
CA -20.0208 -17.6121 51.7031
CA -12.7077 -19.5985 49.7733
CA -0.296649 3.7768 58.0036
CA -31.0961 -30.5353 75.9793
CA -20.5926 -20.3452 68.0517
CA -28.7803 -11.7498 54.8411
CA -19.8428 -23.8704 46.697
CA -21.1806 -8.293 56.556
CA -23.0504 -26.3825 61.9517
CA -5.72078 -14.5027 66.7949
CA -12.9275 -33.1831 82.3214
CA -16.0015 -33.9965 57.3641
CA -9.57938 -35.8727 67.1899
CA -16.1247 -18.2879 43.8496
CA 7.28816 -7.9476 65.9948
CA -21.623 -38.5466 55.3362
CA -16.3381 -4.35938 52.5799
CA -5.98101 -12.576 57.2788
CA -6.83475 -4.00861 63.1406
CA 19.258 -26.6782 41.1739
CA 5.23749 4.91458 51.1728
CA -24.0134 -39.0195 53.6737
CA 1.89692 -27.9424 65.1597
CA -3.10793 -4.08926 48.3836
CA 0.74094 -13.9443 61.6651
CA -12.1371 -33.53 46.5062
