489

CA -20.0676 -21.3646 54.0805
CA -4.90152 -3.88068 49.2762
CA 3.58888 -27.7459 46.2523
CA -5.9695 -17.0327 65.5974
CA -11.0451 -24.7829 60.9416
CA -8.68442 -23.2114 59.7056
CA -4.27648 -19.5379 69.6563
CA -11.1067 -1.75969 66.6987
CA 15.5269 -32.0843 68.474
CA -7.58078 -26.4859 57.7668
CA 5.20853 -31.8864 75.9898
CA 1.82597 -30.1674 71.2573
CA -8.3097 -18.709 31.0849
CA 2.149 -21.2207 85.3663
CA 8.36296 -30.1494 40.1784
CA -3.30819 -35.342 43.0994
CA -2.1896 -21.7183 65.1479
CA -6.64869 -13.2964 88.8398
CA -3.13997 0.102774 69.8304
CA -24.7877 -18.7804 87.5379
CA -30.1126 -26.8859 52.261
CA -11.1556 -7.22857 57.5268
CA -30.0682 -28.5199 76.419
CA -11.5957 -30.4009 45.7639
CA -6.19734 0.0522003 57.2786
CA -1.38138 4.52891 56.3054
CA 6.25846 -33.4151 63.8205
CA -12.1342 -17.2204 62.9123
CA -17.866 -32.7664 53.6862
CA -24.9796 -25.4341 82.3732
CA -8.16544 -35.9087 77.2868
CA -24.0482 -21.2655 68.4036
CA -14.1948 -39.8527 59.5766
CA -33.1485 -21.5444 50.9583
CA -8.04208 -28.5325 43.5549
CA -25.1666 -9.25663 70.9691
CA 0.775985 -31.3964 69.9524
CA 7.78722 -30.5115 53.9971
CA -22.8751 -24.2513 45.181
CA 7.35175 -23.5158 50.2737
CA -5.67381 -24.0433 22.4653
CA 3.97244 -6.31885 54.6147
CA -4.67821 -15.052 60.4577
CA -9.99103 -14.046 32.7218
CA 4.92862 -2.63534 73.0438
CA -15.7126 -23.3637 46.383
CA -2.416 -22.5461 59.6698
CA -25.7901 -9.357 58.9469
CA -20.9176 -24.2788 65.2842
CA 7.34087 -36.3031 49.0442
CA -11.4812 -43.337 46.3549
CA -5.59668 -41.775 74.6263
CA -9.56517 -23.5319 49.9551
CA 4.9118 -17.2765 50.1852
CA 4.94301 -39.3181 50.0375
CA -0.796581 -31.3697 61.5156
CA -14.9228 -6.07362 44.6284
CA -9.28477 -10.3383 33.799
CA -15.832 -3.0529 48.2867
CA -1.71296 -18.3064 76.9941
CA -4.9039 -13.8967 69.4173
CA -6.93279 -37.8416 75.0099
CA 4.49574 -28.2935 84.5787
CA -10.7077 -23.3089 39.1911
CA 2.32548 -18.9005 87.8882
CA 12.9007 -31.0198 44.2319
CA -5.09796 -17.2484 11.0481
CA -19.285 -29.5303 60.9677
CA -33.6677 -4.38148 50.7594
CA 12.9389 -16.7683 57.6294
CA -34.4892 -23.6568 77.8844
CA 5.02157 -7.58968 65.9312
CA -1.35044 -25.1828 76.5169
CA -30.5235 -10.3989 53.8081
CA -19.1795 -26.8617 64.8329
CA 1.03026 -13.5277 8.6617
CA -10.2759 -36.7657 70.1048
CA -5.69659 -38.1806 64.7492
CA -20.684 -32.4202 47.4042
CA -0.273862 -7.29698 56.7653
CA -2.42522 -8.21848 72.5902
CA -0.648633 -28.2729 49.107
CA -8.82291 -35.6427 79.113
CA -11.4376 -6.5234 64.0755
CA -12.3637 -28.6144 67.8366
CA -30.5989 -34.5361 75.7546
CA -7.25917 -36.3649 80.6633
CA 3.24527 -20.1876 61.1866
CA -5.96042 -3.95147 34.6539
CA -25.2737 -25.1407 86.1649
CA -19.0375 -27.3389 51.0499
CA -9.38556 -15.2004 12.6642
CA -17.8253 -1.89294 53.614
CA -11.8552 -42.4946 70.4785
CA 1.77569 -25.6296 87.3303
CA -0.928621 3.84073 74.071
CA 2.12347 -12.9354 65.2858
CA -27.0272 -26.515 66.9708
CA -26.1353 -37.4191 55.4524
CA -11.0281 -22.2641 36.9862
CA 8.23161 -8.22038 75.5557
CA -17.4595 -13.5802 45.7888
CA -12.1127 -42.6438 68.5366
CA 6.57841 -4.02232 46.7155
CA -1.75647 -21.3746 34.8368
CA -23.9029 -17.2343 81.3649
CA -3.93944 -17.7689 48.4218
CA -8.60616 -36.463 44.0274
CA -4.20152 -8.86771 49.3357
CA -2.17557 5.73286 53.7021
CA 1.45087 -7.6557 5.99731
CA -5.36975 -27.3215 58.2725
CA -22.0912 -15.1059 81.1291
CA -14.6453 -7.94428 44.737
CA -19.1366 -19.175 52.5178
CA -8.03189 -27.2853 51.005
CA -4.98242 -32.9137 58.8777
CA 3.80294 -21.3444 89.0045
CA -12.5008 -26.5993 63.5961
CA -6.26111 -25.4849 82.9858
CA -27.1612 -17.7816 54.4081
CA -8.02095 -27.6612 61.1012
CA 9.64991 -29.9273 58.7887
CA -7.28512 -28.1209 46.4375
CA -24.2943 -15.1208 83.4205
CA -26.9545 -16.1287 56.3524
CA -29.7161 -13.5519 63.8257
CA -1.09264 -23.4231 58.5624
CA 9.22483 -32.6087 44.4917
CA -2.8089 -11.7816 38.676
CA 4.1146 -14.0559 62.561
CA 2.58115 -28.3129 51.8935
CA -30.2831 -19.5723 56.9192
CA 7.66042 -9.03393 71.1105
CA -28.8479 -16.4916 51.5348
CA 10.5558 -18.6678 52.6707
CA -16.6733 -6.40924 56.9561
CA -11.8562 -34.6424 48.6029
CA -2.28957 -27.2664 72.8714
CA 2.75862 -37.4527 54.6018
CA -10.6413 -37.2148 72.9212
CA 3.76709 -20.6569 48.9156
CA -29.3366 -27.9986 49.677
CA -26.2184 -18.2478 72.6484
CA -4.72807 -23.5474 63.3625
CA -3.98472 -1.61144 59.1453
CA -1.31888 -20.9531 78.4182
CA -0.719713 -19.5782 15.2223
CA -18.3759 -42.9326 66.9982
CA -14.1264 -18.2415 76.2838
CA -3.61845 -13.9205 15.5469
CA -14.0112 -44.0427 69.4662
CA -14.4417 -21.8559 49.9882
CA -11.579 -9.26395 30.7994
CA 1.95717 -18.0907 67.1017
CA 1.55078 -13.1552 89.5607
CA -5.89633 -35.7393 59.9626
CA -5.65096 -15.71 78.1111
CA -10.6155 -21.1925 86.1169
CA -29.767 -25.2829 49.7823
CA -26.8406 -29.7908 66.6304
CA -30.1407 -8.0245 56.6131
CA -15.429 -13.4499 61.2529
CA 12.7092 -19.0056 49.7442
CA -20.4603 -26.7913 41.3924
CA -21.855 -28.4753 43.1182
CA -1.40162 -12.2391 82.4973
CA 5.38094 -16.6737 83.6998
CA -25.9397 -0.915255 53.0712
CA -17.2046 -25.2428 51.9814
CA 6.4431 -3.14976 51.4796
CA -3.52467 -20.8944 60.502
CA -5.74724 -16.1049 34.5411
CA 2.35545 -10.7792 11.4397
CA -14.9236 -27.3982 70.8876
CA -7.81424 -21.5335 85.448
CA -10.8534 -9.58343 40.7555
CA -35.4783 -11.5637 53.7086
CA -1.59002 -15.3116 52.5025
CA -28.8036 -31.208 77.4415
CA -0.862667 -10.8612 81.1485
CA -13.9565 -27.9084 63.6626
CA -5.99017 -33.0269 81.7663
CA 1.51472 -15.3081 87.9014
CA -33.7522 -7.48911 52.1532
CA 0.0116554 -6.05187 51.7979
CA -9.62015 -2.05556 51.0778
CA -25.164 -32.8427 56.952
CA -26.704 -2.90357 50.3546
CA -26.1407 -18.447 51.5127
CA -0.0940879 -15.6148 10.4144
CA -20.3868 -8.53301 68.344
CA 5.58373 -23.9352 89.7512
CA 0.577763 -28.8607 85.2436
CA -10.222 -39.653 68.7503
CA -19.1779 -39.4446 44.8079
CA 5.71678 -31.4775 60.5818
CA 5.57853 -35.9589 56.115
CA -0.827009 -29.2262 82.4047
CA 5.54654 -6.68408 75.6017
CA -13.0361 -17.4763 42.689
CA 12.6164 -15.038 45.6836
CA -0.321055 2.7212 56.4876
CA -10.4703 -31.7024 44.6128
CA -12.8164 -4.35665 42.7187
CA 6.77837 -28.5506 85.4095
CA -9.92112 -19.5601 51.8556
CA 3.31115 -33.0761 54.7724
CA -16.5843 -16.7402 41.9789
CA -9.10803 -29.3726 48.7242
CA -9.97292 -33.6101 41.8598
CA 0.291969 -9.6707 9.74201
CA -11.8285 -21.2364 41.5647
CA -13.647 -22.8494 40.1556
CA -6.90269 -30.7549 87.789
CA -5.53218 -19.3382 94.6921
CA -3.43723 -12.0616 70.5468
CA 0.735789 -3.17248 54.5926
CA -6.01261 -23.9316 17.7771
CA -18.8415 -17.1826 75.4102
CA -27.511 -9.72761 66.3191
CA -7.4455 -15.5043 29.0019
CA 12.0115 -5.94614 72.4123
CA -24.7766 -31.9054 42.5507
CA -3.88064 -16.7317 92.5563
CA -26.596 -19.0108 90.1759
CA -4.41997 -19.4093 55.624
CA 2.18333 -3.65435 51.9145
CA -16.6877 -35.7054 48.0761
CA -4.11702 -16.4916 49.9311
CA -6.73396 -32.0726 62.5209
CA 1.85917 -25.1627 49.8829
CA -7.82337 -20.7605 26.4051
CA -9.57556 -29.3781 64.303
CA -9.59119 -2.24135 39.3095
CA -16.5407 -16.5742 40.1663
CA 11.5674 -31.5811 49.1072
CA -14.5414 -44.2027 62.9074
CA 5.24668 -15.9576 56.353
CA -1.02617 -25.6307 36.725
CA -15.3387 -16.0448 61.5248
CA -20.8924 -43.9315 56.8498
CA -5.26838 -28.8777 43.6162
CA -10.7495 -28.1163 44.9054
CA -3.68427 0.281049 58.6021
CA -10.7708 -12.2688 36.3736
CA -17.8897 -17.403 62.1822
CA 10.781 -32.9174 66.5364
CA 4.50733 -23.8763 79.8941
CA -23.795 -35.835 74.1618
CA 4.3836 -24.9733 60.321
CA -23.2934 -27.7601 57.5332
CA -16.4576 -14.7599 72.8422
CA -6.45069 -6.07826 35.8632
CA -29.1263 1.35492 51.1392
CA 8.15873 -18.0574 54.8396
CA -7.23524 -1.74722 58.6512
CA -19.9838 -12.3608 70.7253
CA -22.7046 -26.6171 67.7124
CA 0.851217 -8.71428 52.729
CA -29.0845 -24.8921 65.6918
CA -6.63722 -18.947 33.0183
CA -8.59232 -34.9515 85.0876
CA -13.0007 -27.2415 44.7538
CA -0.889648 -30.0763 70.8958
CA -13.1101 -19.5141 24.9914
CA 6.01034 -7.35767 63.7762
CA -34.7536 -25.2406 81.0458
CA -2.44498 -9.65887 60.1186
CA 0.272661 -12.9456 69.3498
CA -13.6176 -24.1831 74.0506
CA -7.16251 -30.4058 67.3166
CA -11.2811 -36.67 42.4608
CA -21.4433 -48.0126 51.86
CA -22.381 -47.595 54.5244
CA -14.3999 -14.6301 66.9768
CA 5.69395 -9.33923 70.9562
CA -3.65554 -12.4691 11.4021
CA -15.2205 -3.52786 61.7052
CA -2.226 -28.7008 51.1555
CA 4.91998 -23.7262 77.2703
CA -29.1436 -10.0857 64.8021
CA -2.27695 -17.5742 62.7468
CA -3.79308 -9.29312 9.22006
CA 3.08309 -17.0951 65.1392
CA -8.54107 -28.3334 85.8117
CA -27.3359 -28.634 47.9137
CA -10.0053 -30.8716 75.0519
CA -29.5268 -6.77415 50.8475
CA -4.78555 -16.069 82.3715
CA -4.22836 -23.3477 70.7144
CA 2.681 -15.3285 63.6366
CA 9.39401 -28.3408 48.4994
CA -16.7454 -37.1147 43.966
CA -3.0222 -16.2037 35.9832
CA -3.77247 6.1096 58.3362
CA -2.636 -22.9093 57.0017
CA -14.072 -25.8862 73.404
CA -8.43435 -4.79352 44.1116
CA -18.6889 -19.9647 55.6856
CA -30.7218 -18.5706 50.3483
CA -0.121544 -19.1814 10.1161
CA 11.4449 -27.7012 70.6901
CA -12.0225 -26.7566 76.3652
CA -31.5993 -26.6893 76.2367
CA -12.2806 -38.7056 69.719
CA -6.47844 -18.591 89.5336
CA 5.01408 -32.6887 78.0101
CA 10.0026 -25.5773 41.5273
CA -0.124997 -10.6063 48.6795
CA 4.60745 -26.4372 71.279
CA -15.5891 1.17148 51.0486
CA 5.17726 -36.4183 54.0805
CA -25.2475 -34.1185 60.1316
CA -13.6393 -35.3891 57.5785
CA -28.6755 -15.887 53.9712
CA -12.2449 -20.13 29.9097
CA -10.1313 -39.5167 76.9881
CA -7.98672 -17.029 91.6564
CA -20.0574 -23.0497 63.2636
CA 9.64434 -4.72795 62.259
CA -25.7978 -11.1833 55.5478
CA -11.2601 -23.9574 75.0598
CA -5.89829 -11.456 49.3652
CA 0.608427 -32.3572 67.5995
CA -6.25531 -4.14397 50.9168
CA -23.2076 -28.641 74.0002
CA -12.4154 -34.3969 59.4093
CA 3.78067 -7.25443 74.0557
CA 8.14831 -29.3716 67.4275
CA -7.80039 -12.5368 30.6079
CA -5.98161 -17.8182 50.4532
CA 8.91167 -34.039 69.9702
CA -6.35447 -22.0509 69.8031
CA -26.8523 -35.9026 75.0677
CA -15.0242 -35.3962 48.9343
CA -11.2241 -7.70544 66.2426
CA -14.9835 -1.51733 65.7487
CA -2.74601 -22.8497 31.293
CA -10.5217 -12.3282 87.4599
CA -21.3427 -26.666 44.305
CA -34.7618 -6.32496 48.8564
CA -2.52401 -8.64561 7.81276
CA -9.91335 -21.4568 39.6292
CA -24.4472 -26.0445 67.8145
CA 1.96093 -19.7875 52.6958
CA -0.174465 -14.6747 41.348
CA -29.2374 -28.0775 78.7734
CA 3.80065 -22.5329 63.0781
CA -21.2436 -26.7034 62.8173
CA -10.3109 -40.0547 49.1781
CA -12.9124 -4.4938 66.0739
CA -22.7653 -21.0342 78.5496
CA 13.5536 -24.4524 40.3102
CA -16.8023 -16.2677 66.1969
CA -12.5707 -21.804 60.5134
CA 0.210647 -19.2607 47.0324
CA -17.7468 -5.86078 45.435
CA -10.4992 -32.2676 84.1839
CA -27.9973 -30.6375 74.2493
CA -14.6697 -37.7837 44.9703
CA -8.66439 -22.7447 62.0183
CA -8.30609 -1.53909 45.8221
CA -30.1878 -19.7549 58.76
CA -12.1556 -22.2795 72.2598
CA 12.5877 -15.442 42.9077
CA -33.342 -11.0935 59.3139
CA -14.8476 -9.8304 44.176
CA -2.73849 -27.8125 81.9443
CA -18.2381 -16.6855 70.07
CA 3.61832 -0.0331462 70.2212
CA -11.4715 -19.3575 40.437
CA -8.59746 -33.7314 38.8478
CA -9.37526 -15.5347 38.5665
CA -9.36144 -28.0023 72.4817
CA -25.6059 -10.9592 60.9617
CA -24.0131 -11.489 67.656
CA -11.7475 3.48984 44.9426
CA -6.80997 -13.3478 69.7828
CA -36.5768 -6.7576 47.1782
CA -31.2657 -32.503 77.9704
CA 11.1 -33.3737 46.3133
CA -19.2788 -28.148 54.1468
CA -4.75396 -34.8664 62.6974
CA -14.1113 -38.6191 85.7226
CA 2.46888 -30.8568 64.3796
CA -13.659 -43.0178 72.3029
CA -25.7887 -8.67309 56.3493
CA 6.87853 -32.6851 66.7004
CA -8.58372 -32.8682 46.2455
CA -14.3581 2.75446 45.7249
CA -1.30327 -31.8752 68.1821
CA -15.3504 -25.1575 53.1819
CA -22.5097 -18.4425 63.4467
CA 5.64049 2.15326 71.438
CA 10.7985 -33.4614 43.423
CA -13.1401 -1.15639 52.5987
CA 3.42636 -38.1333 50.81
CA -24.9998 -19.2974 82.5557
CA -24.6088 -24.0336 80.4838
CA 7.00487 -32.595 78.0095
CA -28.5977 -9.7418 70.5177
CA -13.9555 -15.3076 43.6886
CA 5.59864 -28.2053 71.7925
CA 3.34036 -11.1636 65.3332
CA -26.9109 -32.5129 55.9817
CA -8.54417 -9.4401 40.4228
CA -25.051 -22.1254 87.9693
CA 2.59365 -25.1449 59.5285
CA 4.0499 -28.0285 81.3257
CA -32.3967 -22.332 75.4518
CA -34.7417 -17.9396 55.8186
CA -10.37 -32.4339 77.9001
CA 17.1789 -24.3304 44.7479
CA -9.28 -3.62373 32.3987
CA -29.9894 -25.5691 83.1653
CA 10.7763 -31.4158 46.7941
CA -3.28807 -4.17433 72.6266
CA -20.7811 -27.6447 72.7051
CA -9.22549 -6.20285 41.326
CA 0.0924742 -18.7059 40.487
CA 0.568841 -8.33034 66.6292
CA -3.95728 -13.1114 9.01905
CA -4.74975 -23.296 58.7009
CA -21.2695 -42.0668 66.3933
CA 1.87073 -30.7531 86.5623
CA -8.25652 -16.9187 86.8072
CA -32.5953 -19.2416 50.5341
CA -34.3781 -27.1625 76.5253
CA -5.00828 -28.9367 50.2309
CA -6.89291 -4.9915 57.3541
CA -32.2769 -9.08603 56.9777
CA -26.7302 -21.5024 83.153
CA 1.5184 -0.293239 70.9461
CA 2.96886 -20.7223 59.4899
CA -20.3743 -29.957 45.741
CA 4.24172 -0.500969 67.4767
CA 0.58028 -0.921466 51.573
CA -5.76652 -4.78743 39.7364
CA -19.4399 -16.9141 59.4301
CA -9.79414 -38.5053 86.3167
CA 3.7131 -17.7052 85.1543
CA -18.329 -28.3214 46.4504
CA -4.5553 -29.054 59.9333
CA 5.23496 -22.0021 51.0232
CA -3.24039 -24.623 16.5378
CA -26.3111 -24.9892 75.7825
CA -19.9621 -13.1363 63.7824
CA -15.514 -37.4017 47.585
CA -0.807309 -17.2161 90.2806
CA -3.15926 -7.95025 53.1356
CA -7.52869 -40.1722 52.0748
CA -27.0361 -25.782 52.5484
CA 4.35472 -34.2507 52.39
CA -27.2118 -28.5911 51.7933
CA -26.6911 -15.3732 68.259
CA -17.4094 -20.621 51.0579
CA -10.3077 -17.84 84.8465
CA -15.3418 -20.2999 40.7605
CA 0.353049 2.90118 69.7231
CA -21.3797 -36.8639 43.9383
CA -4.99873 -26.5215 62.6924
CA -16.3041 -14.3112 65.2679
CA -4.57058 -22.8898 60.6705
CA -11.5225 -16.37 87.0642
CA 2.29775 4.20635 50.7272
CA 8.5665 -3.19335 52.5541
CA 7.68606 -4.40733 44.6781
CA -9.41469 -16.2064 53.7421
CA -15.8703 -10.1051 42.0868
CA 8.57079 -13.3269 42.6495
CA -3.39056 -13.9913 38.4535
CA -19.3158 -39.2358 42.8449
CA -8.61016 -22.5846 39.1031
CA -16.0015 -33.9965 57.3641
CA -11.6007 -35.9323 53.1514
CA -17.0032 -21.4243 54.4448
CA 7.28816 -7.9476 65.9948
CA -21.623 -38.5466 55.3362
CA 3.38906 -29.7583 54.4253
CA -24.8377 -29.7659 59.6981
CA -6.83475 -4.00861 63.1406
CA -2.72255 -20.7717 89.5501
CA 1.00911 -9.62387 83.0434
CA -29.1916 -26.2545 67.64
CA -9.60632 -6.58577 29.5047
CA -7.02064 -33.3104 64.8746
CA 0.74094 -13.9443 61.6651
CA -12.1371 -33.53 46.5062
