489

CA -20.0676 -21.3646 54.0805
CA -16.8706 -12.4217 54.4219
CA -30.4593 -15.4782 80.7988
CA -2.84241 -37.8921 64.7081
CA -7.13346 -7.80262 35.2801
CA 0.979179 -26.8288 89.0748
CA -4.27648 -19.5379 69.6563
CA -22.9651 -23.3035 71.5077
CA 8.95343 -13.944 55.1699
CA -7.58078 -26.4859 57.7668
CA 5.20853 -31.8864 75.9898
CA 1.82597 -30.1674 71.2573
CA -8.3097 -18.709 31.0849
CA -27.1704 -29.2673 55.4523
CA 3.46336 -16.263 59.3355
CA 6.66977 -23.9876 57.5136
CA -7.68506 -16.0318 8.31871
CA -6.64869 -13.2964 88.8398
CA -3.13997 0.102774 69.8304
CA -26.2524 -32.2896 65.6318
CA 3.50382 -26.9769 63.4717
CA -11.1556 -7.22857 57.5268
CA -22.7844 -32.724 53.989
CA -5.31486 -35.0944 43.04
CA -10.5093 -16.6168 42.8519
CA -4.94294 -11.3214 34.5334
CA -1.15115 -20.3611 9.95314
CA -12.1342 -17.2204 62.9123
CA -11.9987 -27.9188 47.1235
CA -24.9796 -25.4341 82.3732
CA -16.3043 -21.7726 53.9799
CA -24.0482 -21.2655 68.4036
CA -25.5114 -26.2664 70.5672
CA -33.1485 -21.5444 50.9583
CA -8.04208 -28.5325 43.5549
CA -0.926728 -34.8965 41.353
CA -23.8805 -31.7856 57.7968
CA 0.519618 -15.8714 51.1485
CA -22.8751 -24.2513 45.181
CA -4.52997 5.81153 72.8161
CA -5.67381 -24.0433 22.4653
CA 3.97244 -6.31885 54.6147
CA -4.67821 -15.052 60.4577
CA -9.99103 -14.046 32.7218
CA -6.81274 -32.7671 80.1863
CA -3.78761 -24.8555 32.9706
CA -2.67949 -29.7167 72.094
CA -25.7901 -9.357 58.9469
CA -20.9176 -24.2788 65.2842
CA -24.488 -32.6381 52.529
CA -8.7088 -15.6878 31.2177
CA -5.59668 -41.775 74.6263
CA -9.56517 -23.5319 49.9551
CA 2.02354 -29.7213 89.0166
CA 1.33699 -17.9576 69.8326
CA -0.796581 -31.3697 61.5156
CA 2.95842 6.46824 74.1467
CA -9.28477 -10.3383 33.799
CA 2.68354 -5.0691 72.3139
CA -17.709 -42.7236 71.8334
CA -4.9039 -13.8967 69.4173
CA -26.8273 -20.0199 56.4624
CA -12.383 -33.2018 42.0966
CA 3.60907 -32.9653 51.1378
CA 2.32548 -18.9005 87.8882
CA 12.9007 -31.0198 44.2319
CA -5.09796 -17.2484 11.0481
CA -16.1597 -12.1724 57.0272
CA -1.92992 -13.1041 36.2151
CA -18.4475 -25.1644 61.2066
CA -8.16527 -21.406 9.3635
CA -6.66998 -22.1592 51.4454
CA -21.8048 -35.143 54.7266
CA -30.5235 -10.3989 53.8081
CA -24.7823 -26.9052 75.3456
CA -1.56655 -30.3553 86.6648
CA -10.2759 -36.7657 70.1048
CA -5.69659 -38.1806 64.7492
CA 5.94903 -28.0564 71.2909
CA -0.273862 -7.29698 56.7653
CA 0.618274 -13.347 78.2894
CA -5.79845 -19.686 90.9475
CA -24.4115 -32.5978 65.8525
CA -31.0175 -17.5454 56.9206
CA -12.3637 -28.6144 67.8366
CA 4.51667 -13.5889 81.2383
CA -7.25917 -36.3649 80.6633
CA 4.46199 -16.218 87.2388
CA -0.805699 -19.7481 54.3582
CA 4.87582 -24.309 50.7722
CA -19.0375 -27.3389 51.0499
CA -9.38556 -15.2004 12.6642
CA -17.8253 -1.89294 53.614
CA -11.8552 -42.4946 70.4785
CA -9.5128 -30.1762 79.5554
CA -0.928621 3.84073 74.071
CA 2.12347 -12.9354 65.2858
CA -19.817 -37.5002 55.7033
CA -15.0828 -15.7731 57.3677
CA -28.5897 -11.2939 69.3864
CA 8.23161 -8.22038 75.5557
CA -15.2556 -6.91233 60.4776
CA -3.73555 -14.9732 75.3857
CA 7.40146 -29.3088 60.2639
CA -1.75647 -21.3746 34.8368
CA -23.9029 -17.2343 81.3649
CA -4.77633 -31.2785 61.5109
CA 0.342594 -24.4401 55.3858
CA -17.6312 -7.85155 47.863
CA 0.109543 -27.0305 56.8235
CA 1.45087 -7.6557 5.99731
CA -11.2214 -37.8214 38.809
CA -3.5245 -36.7415 45.1227
CA -14.6453 -7.94428 44.737
CA -19.1366 -19.175 52.5178
CA -2.28531 -13.6724 60.0349
CA 2.75578 -10.0179 68.2574
CA 3.80294 -21.3444 89.0045
CA -30.8781 -27.8183 50.7488
CA -2.38789 -9.74088 73.7786
CA -5.46775 -14.2384 31.6302
CA -7.35685 -27.4539 87.8711
CA 8.93837 -22.6013 76.3252
CA -7.28512 -28.1209 46.4375
CA -24.2943 -15.1208 83.4205
CA 1.7427 -24.5644 59.5298
CA -29.7161 -13.5519 63.8257
CA -27.827 -14.1548 56.8983
CA -32.3444 -25.8261 46.4292
CA -2.8089 -11.7816 38.676
CA -9.33077 -17.4046 40.5083
CA 2.58115 -28.3129 51.8935
CA -30.2831 -19.5723 56.9192
CA 1.74796 -17.8837 62.616
CA -16.1289 -43.1244 59.8786
CA 10.5558 -18.6678 52.6707
CA -16.6733 -6.40924 56.9561
CA -11.8562 -34.6424 48.6029
CA -2.28957 -27.2664 72.8714
CA -13.7619 -3.62235 50.8189
CA -25.0664 -36.8917 67.5139
CA 3.76709 -20.6569 48.9156
CA -29.3366 -27.9986 49.677
CA -26.2184 -18.2478 72.6484
CA -2.42064 -15.717 70.6042
CA -33.1534 -12.0993 56.6349
CA -28.4241 -11.1854 72.1951
CA -0.719713 -19.5782 15.2223
CA -18.3759 -42.9326 66.9982
CA -14.1264 -18.2415 76.2838
CA -3.61845 -13.9205 15.5469
CA -14.0112 -44.0427 69.4662
CA -2.84125 -25.8259 88.6252
CA -32.7443 -29.2125 47.2867
CA 0.0795603 -12.2323 63.1287
CA -29.8637 -31.6697 50.9687
CA -10.9599 -17.0918 94.0655
CA -15.987 -3.34429 47.3726
CA -20.4078 -30.7588 43.2361
CA -2.76755 -18.2457 10.1355
CA -10.0193 -25.3191 82.1269
CA -30.1407 -8.0245 56.6131
CA -31.9493 -14.2522 62.0785
CA 12.7092 -19.0056 49.7442
CA -17.538 -16.8656 50.6078
CA -21.855 -28.4753 43.1182
CA -1.40162 -12.2391 82.4973
CA -28.3203 -6.8583 48.0423
CA -25.9397 -0.915255 53.0712
CA -9.34385 -20.3077 55.4164
CA -6.94512 -30.9396 77.1094
CA -19.1215 -31.4268 49.7071
CA -5.74724 -16.1049 34.5411
CA -21.9215 -30.1199 58.7301
CA -14.9236 -27.3982 70.8876
CA -7.81424 -21.5335 85.448
CA -10.6186 -45.0451 64.5133
CA -35.4783 -11.5637 53.7086
CA -19.3856 -21.4617 74.9444
CA -26.6522 -8.46363 67.2934
CA -32.8882 -16.3992 47.4481
CA -13.9565 -27.9084 63.6626
CA -5.99017 -33.0269 81.7663
CA 1.51472 -15.3081 87.9014
CA -26.6357 -33.1303 54.7495
CA 0.0116554 -6.05187 51.7979
CA -1.89899 -18.4498 12.0615
CA -27.8539 -23.4926 83.0273
CA -19.2858 -25.9336 52.7254
CA -14.8926 -24.5173 45.1793
CA -0.0940879 -15.6148 10.4144
CA -20.3868 -8.53301 68.344
CA -8.17529 -6.69611 63.8089
CA -3.77193 -5.06311 70.7441
CA -11.5703 -44.2009 69.7001
CA -0.412505 -35.9264 49.1034
CA -26.4406 -19.8922 58.8414
CA 5.57853 -35.9589 56.115
CA -2.71631 -32.4028 60.7822
CA -25 -5.35978 61.9968
CA -13.0361 -17.4763 42.689
CA 8.72428 -1.14174 49.656
CA -22.5629 -39.1376 52.6172
CA -29.7795 -27.8039 74.9044
CA 4.60275 7.30345 78.0589
CA -20.215 -7.36731 63.752
CA -26.0168 -18.8326 80.4559
CA -16.3821 -29.1044 54.3768
CA -16.5843 -16.7402 41.9789
CA -9.10803 -29.3726 48.7242
CA -9.97292 -33.6101 41.8598
CA -25.6744 -21.3217 67.5014
CA 4.27983 -34.0739 54.5941
CA -13.647 -22.8494 40.1556
CA -6.90269 -30.7549 87.789
CA -16.408 -0.148 54.5336
CA -3.43723 -12.0616 70.5468
CA -7.98607 -14.2213 40.1124
CA -6.01261 -23.9316 17.7771
CA -4.3521 -15.1626 67.8764
CA -27.511 -9.72761 66.3191
CA -16.1054 -0.587657 51.2826
CA -16.3081 -13.617 59.5725
CA -12.0077 -6.03957 67.3382
CA -3.88064 -16.7317 92.5563
CA -18.7133 -16.7246 72.5139
CA -4.41997 -19.4093 55.624
CA -27.0927 -30.64 70.884
CA -16.6877 -35.7054 48.0761
CA -10.4827 -0.205171 47.1339
CA -9.25299 -23.6168 43.8452
CA -7.43454 -39.5808 72.3681
CA -7.82337 -20.7605 26.4051
CA -18.4288 -6.64043 51.7356
CA -19.772 -30.3095 55.0223
CA -16.5407 -16.5742 40.1663
CA 11.5674 -31.5811 49.1072
CA 4.39715 -17.8772 89.5333
CA -12.6379 6.30999 44.6013
CA 4.58389 -26.288 86.8563
CA -3.71465 -3.11009 57.9704
CA 7.79707 -16.8764 57.0168
CA -5.26838 -28.8777 43.6162
CA -16.7565 -26.5577 53.6388
CA -3.68427 0.281049 58.6021
CA -10.7708 -12.2688 36.3736
CA -12.5115 -13.4871 41.6189
CA 10.781 -32.9174 66.5364
CA -6.34768 -3.32372 54.7283
CA -28.0406 -26.2574 45.0484
CA 4.3836 -24.9733 60.321
CA -23.2934 -27.7601 57.5332
CA -16.4576 -14.7599 72.8422
CA -7.70934 -9.91721 39.3877
CA 13.2933 -24.3013 42.5746
CA 8.15873 -18.0574 54.8396
CA -8.80318 -39.4256 48.2268
CA -4.13321 -6.61473 40.4359
CA -8.33578 -30.149 51.6324
CA -7.82915 -23.8137 69.3309
CA -29.0845 -24.8921 65.6918
CA -6.63722 -18.947 33.0183
CA -8.59232 -34.9515 85.0876
CA -27.3346 -29.7583 63.9208
CA 8.53551 -3.81426 54.6909
CA 8.47757 -36.4733 49.3944
CA -11.5527 -16.0843 38.2341
CA -34.7536 -25.2406 81.0458
CA -2.44498 -9.65887 60.1186
CA 5.46415 -38.8576 47.2901
CA -13.6176 -24.1831 74.0506
CA -2.74982 -33.9719 69.9025
CA -27.396 -32.969 72.1152
CA 6.97543 -21.2118 60.3843
CA -13.7166 -34.9639 49.189
CA -14.3999 -14.6301 66.9768
CA 5.69395 -9.33923 70.9562
CA -3.65554 -12.4691 11.4021
CA -15.2205 -3.52786 61.7052
CA -2.226 -28.7008 51.1555
CA 4.91998 -23.7262 77.2703
CA -13.6363 -37.0448 49.816
CA -9.35928 -17.6361 50.9512
CA -3.79308 -9.29312 9.22006
CA 3.08309 -17.0951 65.1392
CA -20.328 -27.2742 61.0437
CA -7.7196 -6.10808 61.8858
CA 3.75777 -23.4833 85.9554
CA -29.5268 -6.77415 50.8475
CA -5.08953 -3.01774 69.1474
CA -11.8022 -37.3101 46.4258
CA -8.87511 -36.9463 78.4806
CA 9.39401 -28.3408 48.4994
CA -16.7454 -37.1147 43.966
CA -14.6494 -31.6187 54.4574
CA 7.49568 -32.5238 64.8037
CA -15.0365 -18.7516 68.9472
CA -1.4094 -7.67991 52.0784
CA -8.43435 -4.79352 44.1116
CA -20.1792 -4.64793 70.1001
CA -28.0166 -6.50745 54.4344
CA 6.56714 -4.36836 64.7526
CA 11.4449 -27.7012 70.6901
CA -15.6147 -6.48004 65.4883
CA -27.2696 -32.1136 63.1278
CA -16.6626 -14.5587 76.6634
CA -6.47844 -18.591 89.5336
CA -10.8514 -15.9527 39.9742
CA -5.54253 -16.0249 73.4481
CA -0.124997 -10.6063 48.6795
CA 4.60745 -26.4372 71.279
CA 2.20945 -6.69958 51.6753
CA -29.86 -1.6852 52.7477
CA -21.7403 2.64934 58.6836
CA -5.1463 -22.1885 90.4222
CA -22.0939 0.0259417 59.7047
CA -2.70647 -38.6226 63.003
CA -10.1313 -39.5167 76.9881
CA -7.98672 -17.029 91.6564
CA -20.0574 -23.0497 63.2636
CA -13.7411 -17.1821 58.07
CA -26.9537 -26.4089 82.6944
CA -28.1668 -6.64507 69.0023
CA -5.89829 -11.456 49.3652
CA 9.32047 -32.9047 70.6822
CA -16.5792 -36.2354 52.8498
CA -28.4022 -30.932 48.2437
CA -23.9547 -35.7406 68.6006
CA -30.3597 -28.2008 45.6476
CA -4.76599 -12.2492 88.8411
CA -5.31521 -34.1401 65.63
CA -5.98161 -17.8182 50.4532
CA -7.60069 -20.7153 36.3472
CA -1.84889 -15.5638 92.8339
CA -10.5429 -28.7226 84.8328
CA 6.24592 -7.35772 64.1149
CA -11.2241 -7.70544 66.2426
CA -16.48 -9.07141 42.4632
CA -35.3591 -13.9184 56.1834
CA -10.5217 -12.3282 87.4599
CA -1.61417 -8.95705 10.6669
CA -34.7618 -6.32496 48.8564
CA 10.5053 -28.5922 59.6654
CA -9.91335 -21.4568 39.6292
CA -24.4472 -26.0445 67.8145
CA 1.96093 -19.7875 52.6958
CA -0.174465 -14.6747 41.348
CA -29.2374 -28.0775 78.7734
CA 4.39606 -9.93003 69.2326
CA -21.2436 -26.7034 62.8173
CA -27.7146 -24.9736 73.6779
CA -12.9124 -4.4938 66.0739
CA -13.0072 -8.12047 45.6434
CA 13.5536 -24.4524 40.3102
CA -16.8023 -16.2677 66.1969
CA -17.0476 -22.9977 73.8802
CA -10.6734 -0.458799 63.9555
CA -0.986482 -4.77335 70.9042
CA -29.577 -20.537 53.2067
CA 7.91183 -23.35 58.676
CA -2.57592 -23.8899 60.9966
CA 0.660694 -6.4212 80.7366
CA -8.30609 -1.53909 45.8221
CA -23.681 -29.5532 62.8606
CA -12.1556 -22.2795 72.2598
CA -5.83654 -34.0561 69.9513
CA -33.342 -11.0935 59.3139
CA 7.47855 -32.1472 54.7564
CA -2.73849 -27.8125 81.9443
CA -17.9388 -13.6051 60.37
CA 3.61832 -0.0331462 70.2212
CA -9.38223 -18.817 90.5364
CA -31.8397 -26.8743 49.1896
CA -7.08295 -2.31239 39.0075
CA -9.36144 -28.0023 72.4817
CA -33.1275 -32.3162 73.7582
CA -24.0131 -11.489 67.656
CA -11.7475 3.48984 44.9426
CA -6.80997 -13.3478 69.7828
CA -25.3652 -8.92397 64.6984
CA -5.41346 -14.3734 62.9822
CA 1.28478 -16.1251 57.0941
CA -24.3919 -22.2832 81.1036
CA 5.08545 -18.0078 64.4928
CA -14.1113 -38.6191 85.7226
CA -7.50408 -4.51878 72.3061
CA 8.09524 -32.0044 62.6274
CA -25.7887 -8.67309 56.3493
CA 13.5681 -24.4842 44.7439
CA -8.58372 -32.8682 46.2455
CA -25.7782 -17.1031 59.2999
CA -29.3936 -16.4124 57.579
CA -15.3086 -25.5425 67.1346
CA -23.7787 -37.1741 57.1919
CA -18.0778 -2.24538 59.9608
CA 10.7985 -33.4614 43.423
CA -13.1401 -1.15639 52.5987
CA -4.73723 -29.7965 90.2503
CA -24.9998 -19.2974 82.5557
CA 13.0919 -27.3845 41.6617
CA 4.02012 -24.4785 88.7082
CA -14.3939 -17.9426 41.411
CA -4.25195 3.3955 55.7924
CA -23.6501 -4.99757 68.7436
CA -3.38215 -21.7711 75.7788
CA 3.98657 -6.77292 66.1553
CA -17.1135 -28.9245 44.7343
CA -28.3255 -32.1182 60.1938
CA 1.93347 -14.0304 51.9415
CA 4.0499 -28.0285 81.3257
CA 3.19489 -29.7251 46.5419
CA -29.7363 -27.0694 47.2963
CA -10.37 -32.4339 77.9001
CA 17.1789 -24.3304 44.7479
CA -16.4881 -19.9638 44.3512
CA -29.9894 -25.5691 83.1653
CA -23.0752 -30.6572 42.9381
CA -3.28807 -4.17433 72.6266
CA -18.9563 -7.08707 65.2252
CA -9.22549 -6.20285 41.326
CA 0.0924742 -18.7059 40.487
CA -14.5411 -16.7414 38.8516
CA -18.8475 -4.19748 71.9726
CA 5.62945 -2.51095 55.1798
CA -21.2695 -42.0668 66.3933
CA -6.59666 -3.34914 49.596
CA 4.48182 -13.2536 86.7618
CA -32.5953 -19.2416 50.5341
CA -34.3781 -27.1625 76.5253
CA 6.13921 -16.305 48.6406
CA -6.89291 -4.9915 57.3541
CA -32.2769 -9.08603 56.9777
CA -26.7302 -21.5024 83.153
CA -5.39113 -7.22265 45.8708
CA -9.78923 -19.9505 26.7726
CA -23.4083 -25.4428 40.973
CA 4.24172 -0.500969 67.4767
CA -6.85216 -31.2985 64.4695
CA -5.76652 -4.78743 39.7364
CA -16.6707 -30.1664 64.3902
CA -9.79414 -38.5053 86.3167
CA -22.8774 -29.5976 40.7515
CA -18.329 -28.3214 46.4504
CA -4.5553 -29.054 59.9333
CA -9.34176 -34.3936 51.9799
CA -3.24039 -24.623 16.5378
CA -17.999 -24.9777 58.9969
CA -19.9621 -13.1363 63.7824
CA -24.3683 -8.61089 60.9294
CA -3.99714 -12.5224 49.9051
CA -32.8131 -25.8054 53.2978
CA 2.02857 -27.1034 85.8161
CA -10.393 -24.4025 39.9176
CA 4.35472 -34.2507 52.39
CA -23.8378 -31.7316 44.4953
CA -26.6911 -15.3732 68.259
CA 7.91764 -32.456 79.8355
CA -27.9569 -0.35964 54.9042
CA -15.3418 -20.2999 40.7605
CA 0.353049 2.90118 69.7231
CA -21.3797 -36.8639 43.9383
CA -13.2462 -14.8124 61.9168
CA -6.5467 -20.9331 59.6433
CA -4.57058 -22.8898 60.6705
CA -12.6671 -5.99617 45.9681
CA 7.93028 -37.4997 43.2404
CA -5.2559 -37.9583 70.7501
CA 5.34973 -28.1409 73.5762
CA -9.41469 -16.2064 53.7421
CA -7.71792 -1.34701 55.5175
CA -11.417 -18.3492 58.7385
CA -5.98464 -31.4607 72.9331
CA -15.4528 -2.75514 49.4407
CA -2.97442 -26.7153 75.2306
CA -5.6144 -10.1532 87.9104
CA -21.9338 -22.748 42.4572
CA -9.94533 -19.4649 10.3954
CA 7.28816 -7.9476 65.9948
CA -21.623 -38.5466 55.3362
CA -22.4344 -21.0479 56.1398
CA 6.87464 -22.1009 64.9986
CA 7.37442 -16.5734 80.4428
CA -23.0891 -33.9107 61.8314
CA 1.00911 -9.62387 83.0434
CA -25.4592 -37.3395 53.1345
CA -9.60632 -6.58577 29.5047
CA -18.5534 -6.17618 47.6194
CA 0.74094 -13.9443 61.6651
CA -14.0375 -46.9846 62.3688
