489

CA 29.8 25.5069 48.3219
CA 17.1243 -22.6853 52.3939
CA -21.489 12.38 40.5771
CA -19.1234 -4.70669 55.7523
CA -3.81913 -21.905 35.7291
CA -10.0599 19.8725 32.6266
CA -27.3281 12.4865 43.3521
CA -15.0722 19.7203 34.7834
CA 30.9469 19.2182 50.7599
CA -19.4963 0.0257108 38.7735
CA -19.7545 8.30675 37.3562
CA -16.0176 18.3631 49.1135
CA 21.4029 -0.423944 63.0329
CA 11.2864 -24.686 48.2531
CA -12.2671 -13.0333 63.7638
CA -2.88116 -19.539 71.0671
CA 17.102 1.15615 85.8821
CA 13.3379 -34.2375 51.6538
CA 6.38252 -11.9601 60.4557
CA 28.0097 28.3098 46.6299
CA 10.0857 -6.40402 68.2595
CA 7.82569 -14.6506 48.5873
CA -25.5402 -4.14482 64.2182
CA 0.736022 -1.19832 50.3896
CA 2.24543 -15.8627 50.6749
CA -15.7313 -1.06055 53.9905
CA 11.0348 -5.22328 88.4777
CA 18.9281 -2.11288 70.0095
CA 7.60988 -40.3993 57.8484
CA 24.8485 -20.6899 70.3944
CA -7.0842 -20.893 47.8811
CA 5.74869 -5.41529 57.0025
CA -29.3717 8.8018 46.1817
CA -12.0394 -30.766 67.0228
CA -2.73178 7.86902 69.6205
CA -1.56997 -15.6409 46.1485
CA 12.8044 -16.2846 66.1359
CA -25.3963 -2.40119 67.257
CA -9.71286 -13.1451 57.2487
CA -9.34256 -19.6587 29.332
CA -6.58717 -9.58434 88.577
CA 11.8221 -12.2297 68.0917
CA -15.1928 3.12242 56.7642
CA 8.38501 -17.1918 50.7651
CA 14.4388 -26.4154 44.5176
CA -5.42373 10.7127 72.14
CA 22.4054 -2.12202 75.7351
CA 22.01 -15.246 56.0902
CA 15.8833 -31.0935 53.4524
CA -0.745124 -27.3639 68.6168
CA -19.6461 -7.74393 52.4137
CA -2.4118 -24.4448 77.3388
CA 9.87706 10.6558 54.682
CA 10.2808 3.8643 51.6334
CA 27.2119 19.2886 57.498
CA -0.895983 5.8076 71.2932
CA 0.0134125 -9.83616 53.6914
CA 1.60306 16.5511 89.4023
CA 16.3539 -12.623 61.4068
CA -9.5367 -16.3618 45.0162
CA -22.773 17.1701 43.8193
CA 7.19246 -9.7263 79.0028
CA 7.23996 4.79639 69.2497
CA 25.6095 -13.3591 83.144
CA 3.57675 0.271833 53.691
CA 11.3667 -8.74343 71.0567
CA 14.0812 -5.27412 90.2066
CA 1.909 -1.07815 72.3036
CA -1.10331 -22.0584 73.4714
CA 2.93401 3.90693 54.6744
CA 20.4632 -19.012 52.5258
CA -11.2959 -18.2299 38.4029
CA -7.90577 -5.83558 72.7877
CA -3.27327 -9.60958 56.6053
CA -19.7428 -6.20374 41.8238
CA 17.2608 0.509347 72.1146
CA -20.5103 1.54468 28.8514
CA -5.45014 -22.8635 17.8713
CA 2.90336 -32.0538 51.6322
CA 13.9951 -13.848 61.9568
CA 14.3791 -2.64879 82.1012
CA 25.8126 -27.823 53.7893
CA 26.2563 -28.6356 50.9126
CA 14.9741 -3.55055 52.7695
CA 23.2017 -9.71692 70.3002
CA -5.42632 -22.3077 79.3093
CA 9.26386 -5.20948 71.8006
CA -12.9784 -11.3191 61.0142
CA 19.5187 -31.4789 52.5723
CA -10.0193 -18.496 85.3526
CA 17.9129 -5.68966 89.6966
CA -5.74175 -5.10675 61.7655
CA 17.5114 -0.832397 68.3207
CA -9.08186 -28.8814 65.7706
CA 0.478257 16.9134 42.5287
CA -9.12605 -21.6754 49.2713
CA 10.4362 13.7365 50.9115
CA -5.13277 17.8125 49.8092
CA 11.0276 -2.82117 83.7297
CA 19.2994 -27.073 51.4905
CA 16.8036 -9.42362 82.7353
CA 15.0523 -34.4241 52.7338
CA 1.26432 -4.96866 72.1726
CA -17.9094 -10.9601 46.9219
CA -22.5915 6.71578 39.7017
CA 4.49162 -2.54854 61.0564
CA -4.59238 -15.7279 65.9134
CA -9.16997 31.0304 59.2144
CA 7.47045 -8.23445 57.7845
CA 5.77277 -0.676785 61.018
CA 11.7284 -24.4295 52.7745
CA 9.79235 -21.2221 60.8862
CA -21.0024 5.40728 46.9126
CA 3.03398 -12.9947 80.1052
CA 20.0653 -23.549 52.1995
CA -18.3024 -15.0121 40.3548
CA 24.627 29.7142 46.9156
CA -21.2723 -7.95855 60.8501
CA -15.4991 -16.8917 64.0802
CA -4.38723 14.0967 51.2007
CA -9.65467 -32.1566 68.616
CA 15.9099 -24.7884 65.3453
CA 26.1638 29.5186 48.8281
CA -2.15871 -7.92274 53.4683
CA -11.3813 -14.6595 78.771
CA 16.3932 -2.40383 70.7682
CA 13.9936 -5.10493 53.3114
CA 4.55088 -10.8574 62.2823
CA 25.8427 -15.5687 57.5145
CA -22.6412 -7.30278 59.4881
CA 11.957 29.2095 41.0156
CA 1.09578 -13.8438 88.4889
CA -3.21836 30.1156 43.3273
CA 24.1723 22.1318 53.7661
CA 17.2321 -24.901 51.241
CA -1.91361 -28.0566 48.7195
CA -1.94203 -8.18784 56.2981
CA -19.6559 -6.46505 61.0424
CA 2.10631 -2.48332 82.3846
CA -8.6654 -11.6376 86.8457
CA -21.5171 -13.23 40.0262
CA -23.5788 -6.31883 56.6033
CA 29.9595 18.7909 44.1501
CA 4.59809 -15.4227 49.2802
CA -18.6015 24.4467 28.2706
CA -1.51585 -6.53601 60.2918
CA 22.0219 -5.7727 86.7984
CA -1.00346 -4.59538 35.3283
CA -11.6648 -13.2684 83.6142
CA -26.2456 -6.90375 36.6954
CA -12.0472 -15.5196 63.0574
CA 5.85068 -15.3255 53.4343
CA -25.9021 -5.84719 41.137
CA -17.8473 11.4709 42.6128
CA -19.6166 9.59976 43.2714
CA -24.9763 3.86609 38.6616
CA 29.9798 23.0984 43.2239
CA -0.131988 -13.9292 44.89
CA 2.27952 -26.2155 52.0347
CA 22.6767 22.2861 51.3652
CA 1.27554 -12.9671 47.8829
CA 0.437833 23.574 71.4637
CA 24.5429 -6.19571 79.5577
CA 6.43981 -2.60803 57.9821
CA -4.01512 -4.13546 54.9694
CA -3.26655 -2.27138 68.7617
CA -27.3793 8.74527 45.3425
CA -21.304 -0.464298 22.8981
CA -20.0471 9.22452 41.5548
CA -1.48847 -32.2984 41.2216
CA -18.2614 -8.00591 54.087
CA -4.09284 -19.4616 65.3783
CA 3.51588 -0.220173 69.8972
CA -16.9006 -6.86097 61.3478
CA -24.4896 1.83616 53.5717
CA -13.1357 0.369308 54.8399
CA -12.2989 -4.10599 56.5607
CA -4.8833 -20.3424 89.6336
CA -2.94457 -20.556 76.759
CA 14.9494 -23.6524 54.0698
CA 6.81064 6.87286 59.971
CA 30.0149 -27.0805 54.4546
CA -4.10292 11.5159 69.4946
CA 21.5056 -24.3342 62.3314
CA 15.4661 -5.24635 59.3061
CA -0.512026 -13.2166 75.5004
CA 21.439 -15.5274 71.6983
CA 4.37638 7.15918 58.077
CA 26.2601 18.6416 59.597
CA 22.4956 -10.4574 71.8182
CA -11.768 -17.7034 86.3473
CA 8.31844 -36.4152 53.5932
CA 4.01609 36.1746 65.4973
CA 11.8943 9.88761 58.9867
CA 22.1802 -24.64 45.7944
CA -10.0797 0.289491 61.3809
CA 9.6983 19.1149 62.7238
CA -11.5701 40.3988 56.4091
CA -6.42725 -21.2861 38.1759
CA -2.03017 -3.56601 55.3151
CA -3.5558 -7.76305 58.2789
CA -11.0838 -15.9391 82.457
CA -8.8146 4.19545 31.3098
CA -16.3983 -17.4156 41.5711
CA -9.71763 32.78 60.0061
CA -15.3409 -12.8127 46.4208
CA 15.9206 -20.9526 51.8145
CA 15.2656 -0.463358 45.0718
CA -9.51095 -15.4015 85.2332
CA 6.43117 -16.7944 66.5985
CA -20.952 -3.77796 56.0217
CA 13.6362 -24.6506 44.0038
CA 18.2161 -13.5962 70.357
CA 22.7413 -23.7221 70.349
CA 10.3574 -0.958654 52.9026
CA -5.44257 26.5876 70.2385
CA -9.032 -15.8389 66.8744
CA 25.309 -25.7342 49.2135
CA -15.499 -14.2013 91.8786
CA 19.8834 -14.9897 62.6904
CA -12.1104 -28.3669 65.9829
CA 14.1051 -25.4292 55.8205
CA 14.5242 12.1744 63.6149
CA 17.1986 -5.02506 68.2859
CA -2.33181 -10.0625 60.0851
CA 19.6779 -18.8188 73.1919
CA 18.338 -18.7139 65.8016
CA 11.9683 -15.296 63.0486
CA 9.26999 -32.5022 51.9093
CA 0.667791 -26.0616 74.2616
CA 14.4863 -5.0038 51.3206
CA -8.8732 -22.6597 28.8394
CA -3.86488 -33.4662 43.2791
CA -7.34234 -22.377 61.3939
CA -19.1693 -4.09181 50.2572
CA -0.796756 -25.5233 65.5188
CA -12.5109 -12.7054 28.6817
CA -7.90641 -17.9334 82.425
CA 24.1826 -25.9876 61.2071
CA 6.00012 -16.3091 72.1814
CA -9.53996 -30.4333 67.1825
CA -5.96235 -21.837 14.5548
CA -10.9837 5.38458 34.3849
CA -7.00993 22.6393 48.6671
CA -7.89495 -17.4474 46.1478
CA 13.2457 -13.7308 59.1986
CA -0.775561 35.9239 64.6507
CA 7.60387 22.9031 40.7216
CA 12.0486 -19.6846 69.0063
CA -26.2366 -11.9438 36.9945
CA 12.3455 27.3196 35.4159
CA 10.1961 28.0331 39.7742
CA 15.3537 26.2935 40.7111
CA 0.5613 -23.027 76.5755
CA -0.59824 -6.79336 82.0988
CA -10.2871 -24.6182 27.7056
CA 24.0229 -1.51701 65.1366
CA -7.48334 -17.2408 71.2106
CA 19.7234 0.346322 65.4343
CA 12.0359 -38.0346 55.2859
CA -16.7711 -8.92598 26.9063
CA 24.6304 -25.1203 51.0723
CA -22.4162 -4.98861 58.6875
CA 6.2806 26.8723 38.6812
CA 7.14319 -0.072584 53.4686
CA 25.168 21.9604 57.4187
CA -11.086 -29.7064 61.1418
CA 7.6566 1.0643 50.7699
CA 3.89636 -6.58162 59.158
CA -3.63637 -18.8415 91.8381
CA 19.168 -1.55697 62.9671
CA -9.01651 -28.3349 63.638
CA 14.125 -14.9999 65.1001
CA -17.2289 26.0518 30.2205
CA 7.4838 -13.5279 80.4643
CA -7.41014 -15.1843 86.5595
CA -12.5636 4.5453 29.8677
CA -2.88295 -13.9186 80.8453
CA 1.35981 -14.462 74.7247
CA 1.16087 -30.6123 52.4555
CA 23.5871 -17.5632 81.9491
CA -8.21142 -20.01 45.2077
CA 22.923 -18.2849 64.1824
CA 22.4326 -8.76085 84.3678
CA -11.5394 -17.7286 84.073
CA 17.0804 -19.3494 50.8341
CA -28.0604 -1.08897 39.5346
CA -28.935 -11.7671 33.7406
CA 21.7426 -15.666 83.0643
CA 12.862 -27.8841 50.8845
CA 10.4469 7.06355 64.1009
CA -1.47 -20.6886 20.3365
CA 16.1015 -25.0145 56.1209
CA -3.84226 22.4556 46.8235
CA 6.97384 -14.8622 59.8456
CA -4.40343 -8.21814 70.7113
CA -4.40269 -18.1523 76.4921
CA 16.1912 -32.8828 54.7339
CA -7.34968 -16.4282 22.1317
CA -13.7645 -20.343 90.2845
CA 2.82839 -8.82458 50.3924
CA -17.3549 -11.3897 43.3431
CA 6.30394 -36.1396 52.0282
CA -25.4244 7.17994 37.5414
CA 13.8159 -6.59585 70.7996
CA -5.94156 -18.4301 47.982
CA -5.617 6.27824 78.6911
CA -11.2153 -29.264 71.0351
CA -10.8834 9.83401 32.5115
CA -20.6781 2.93996 53.8651
CA -4.87487 -19.785 72.7425
CA 19.4215 -22.746 69.0943
CA -9.13563 -33.2657 45.4503
CA -5.09923 -21.3386 34.4176
CA 7.03933 -3.92878 60.415
CA -7.98444 -8.62988 57.4384
CA -13.5283 11.5157 42.549
CA 1.83594 32.2803 39.4084
CA 21.2931 -16.5263 63.5562
CA -3.97801 24.2922 47.8478
CA 13.1679 -16.0326 67.99
CA 17.333 4.23558 82.0956
CA 14.5817 -17.0218 68.6323
CA -3.80099 -16.514 80.2373
CA -8.42991 -18.8025 91.1678
CA 14.8692 -0.434111 59.6378
CA -18.5251 -15.7669 36.2639
CA -9.62448 -14.8287 61.9383
CA -6.13579 -2.23132 60.6578
CA -16.718 3.55135 54.8205
CA 1.50649 -14.7586 77.445
CA 3.2166 -15.3166 45.7968
CA 25.2203 23.9823 51.5894
CA 4.50561 -2.44492 64.8286
CA -26.3051 -2.73815 60.9564
CA -5.44927 -20.3122 44.6708
CA 12.5249 1.46233 45.7534
CA -5.28949 -23.4623 90.8799
CA 1.43438 37.5372 65.7633
CA 13.0076 9.01923 64.342
CA 17.5748 -1.43956 43.454
CA 23.2065 -2.43001 63.269
CA 30.0473 23.3924 40.7838
CA -29.094 0.0512269 53.4156
CA 25.2396 -8.56517 79.5755
CA 25.205 23.184 49.6074
CA 2.47754 -1.54045 84.0878
CA 0.305586 -15.8914 76.6632
CA 24.1583 -14.3404 58.7732
CA -16.5626 14.5412 44.0843
CA 12.6646 1.35823 42.109
CA 24.7405 -13.184 69.7974
CA 2.8557 12.0279 84.2713
CA 13.182 26.7304 44.7307
CA -5.92007 8.43156 78.2098
CA -11.3347 -17.6951 40.9045
CA -3.81989 -27.4642 70.5523
CA 11.6753 -10.702 57.7955
CA 23.3104 -30.4748 47.9056
CA -9.2491 -21.9299 90.0235
CA 12.5176 -4.65719 57.6132
CA 2.89459 30.152 38.9993
CA 3.10487 -24.1342 52.1338
CA 21.014 -29.9209 53.3176
CA -7.41066 -20.4145 61.871
CA -26.0837 16.2235 45.9339
CA 6.44091 -1.92769 67.1457
CA 27.3353 -24.2956 52.2079
CA 26.0511 -19.8346 66.0852
CA 17.8006 -24.8559 69.1789
CA -7.21079 -17.6008 88.8614
CA -3.86284 -15.076 82.2736
CA 18.7687 -8.72534 76.5097
CA -5.70294 -14.9889 45.4465
CA -9.16189 -22.7559 30.8697
CA 3.93871 -13.0265 73.5451
CA -5.29353 -5.82324 38.5783
CA 23.2958 -6.74579 75.486
CA 2.86942 -10.9524 51.119
CA 29.6749 21.2736 47.2628
CA 5.01765 -8.00498 60.9288
CA 7.14143 10.5567 57.5566
CA -14.3787 -8.71615 65.7788
CA -12.8653 -12.2729 65.5395
CA 4.91674 11.4476 58.4742
CA 3.45483 -19.945 76.8763
CA -7.02132 -9.32225 31.3535
CA 10.9413 -8.08743 85.0756
CA 13.5644 -20.0655 51.6805
CA 15.6305 -36.1371 53.9584
CA -0.139244 -20.7815 69.0206
CA -3.74836 -14.0639 88.9811
CA -8.12762 -15.084 49.2948
CA 7.7387 -2.57314 62.9294
CA 13.4606 -4.16003 50.0192
CA 14.9178 -11.5048 58.0437
CA 18.9193 -14.192 54.1981
CA 16.3439 -9.11184 63.1965
CA 7.53024 -18.9037 61.7446
CA 15.0905 -5.33634 73.614
CA 3.20507 17.931 89.9371
CA 26.0989 -26.1507 54.9436
CA 22.6154 -21.038 68.8219
CA 8.16311 -3.61109 81.4163
CA 10.4615 1.33239 49.9191
CA -3.98965 -8.29309 60.4635
CA -27.5924 -18.7202 39.0483
CA -9.97745 -12.3946 9.51427
CA -5.02181 -5.87228 58.2325
CA 18.8798 -18.7081 50.8337
CA -26.587 -4.00385 59.4541
CA 10.366 -10.388 59.5158
CA 9.87539 -3.13691 80.1458
CA 28.6702 -2.44255 74.6947
CA 5.35734 -17.0709 53.7298
CA -25.1178 -5.99267 38.4306
CA 18.3311 -4.61161 71.294
CA 4.7247 -9.0063 80.3719
CA 11.6157 1.63804 63.0412
CA 10.1543 30.9353 45.2627
CA -13.1504 -9.99934 30.237
CA 13.1624 30.7731 44.5965
CA -1.52416 -11.5347 52.697
CA -0.947082 -33.5091 54.8144
CA -17.9435 -1.41348 52.4301
CA 18.8499 -3.26826 68.5675
CA -21.992 16.2638 41.8904
CA 10.5915 -2.51103 70.6303
CA -3.61802 -16.2922 34.4906
CA 15.0276 -30.504 55.3366
CA 13.7388 -24.1942 50.5367
CA 9.18454 5.75767 62.5064
CA 5.90472 -10.9221 78.0677
CA 17.7556 -12.6234 67.5346
CA 14.8631 -7.69248 67.7852
CA -11.2114 -22.0982 27.3542
CA 0.58274 -11.3173 49.6369
CA 9.25422 0.379959 46.5457
CA -13.9173 -16.1529 87.6694
CA 18.7447 -22.8152 53.3342
CA 11.3244 10.2047 61.4915
CA 3.74678 -0.320179 65.3389
CA 1.87947 -5.8015 80.9433
CA -12.0715 -18.3675 70.4416
CA -21.0926 12.1626 47.0831
CA 24.3479 -8.60587 83.0115
CA -2.51626 -30.5128 47.1799
CA -9.35735 -19.7205 73.5501
CA 22.294 -16.4524 74.0588
CA 10.4774 -2.03064 86.5233
CA -2.01548 8.04158 78.473
CA 10.4892 16.2823 66.1245
CA 16.5856 1.95336 42.1777
CA -25.8684 -0.900415 36.901
CA -17.0456 -12.7998 45.2129
CA -16.2508 -8.31375 51.9725
CA 18.0605 -10.543 56.8249
CA -7.28205 13.3427 48.7484
CA -0.167155 19.7855 90.5571
CA -0.377083 -24.4377 67.9759
CA 12.029 -0.532566 52.1176
CA 14.5885 -29.6504 46.6767
CA 12.9176 -4.67769 70.981
CA -10.5642 -17.7365 32.136
CA 2.89018 19.51 91.5399
CA -8.63255 32.8771 61.5835
CA 21.3873 -21.519 65.2651
CA -3.56303 -10.2115 51.9224
CA -3.47307 25.8346 50.1417
CA -2.21442 -3.98326 33.3227
CA 1.14995 -21.3387 76.0517
CA 23.0724 -4.11318 71.9189
CA -13.8707 -8.92445 26.6031
CA 6.68246 -16.4915 50.9864
CA 6.63342 -9.69576 51.5015
CA -5.36379 -20.2356 56.4825
CA 3.26089 21.1556 39.6418
CA -0.940651 1.23841 73.0512
CA -11.599 -14.4412 76.2829
CA 29.2157 -5.58339 76.7215
CA 5.17958 -3.2571 84.5798
CA 2.15465 -27.245 71.8079
CA -5.4033 -21.0684 54.2747
CA 14.5668 -6.41398 49.4019
CA 5.67951 24.0105 40.4381
CA -25.5173 10.4529 44.0589
CA -4.33302 -16.2801 45.6588
CA 20.3039 21.9797 48.8202
CA 0.473577 -19.0822 68.7039
