489

CA -31.6323 -26.2191 88.4576
CA -9.22684 -9.1581 62.0461
CA -10.3091 -17.669 78.7641
CA -7.5151 -34.774 41.2224
CA -12.016 -31.5896 66.5243
CA -3.45207 -20.181 84.732
CA -12.0927 -43.2316 64.4089
CA -35.485 -30.6279 59.8577
CA -20.2895 -22.295 45.5228
CA -14.9857 -6.68473 44.665
CA 5.37604 -20.7987 58.5652
CA -24.0742 -23.1436 50.5239
CA -33.4691 -34.2762 79.9736
CA -30.3249 -31.2772 71.737
CA -23.5757 -22.8955 80.329
CA 6.66977 -23.9876 57.5136
CA -0.130099 -28.7925 84.4836
CA -17.8815 -7.83321 37.525
CA 0.130972 -29.336 71.8291
CA -7.36359 -21.5606 81.783
CA -24.078 -7.47396 54.5816
CA -0.357499 -34.7167 50.9892
CA -22.7844 -32.724 53.989
CA -21.3499 -13.5753 52.6484
CA -12.0084 -26.8728 67.4936
CA -4.94294 -11.3214 34.5334
CA -0.98612 -21.6808 88.3922
CA -32.7448 0.432204 51.4099
CA -18.8567 -19.3907 76.9426
CA 9.77141 -26.5238 47.5957
CA -5.235 -4.55518 60.0726
CA -0.513779 -14.4673 8.58324
CA -25.6736 -25.296 68.2944
CA -31.0676 -32.6063 77.6811
CA -29.7172 -31.9775 47.5789
CA -10.1517 -0.560481 44.6265
CA 2.43583 -20.9293 41.4901
CA -7.64707 -39.5681 88.7236
CA 0.812389 -31.048 39.5883
CA -24.6898 -9.76295 59.5031
CA 7.99493 -33.6546 52.7985
CA 3.97244 -6.31885 54.6147
CA -8.38534 -33.998 43.3539
CA -4.62432 -20.01 28.0873
CA -13.8671 -28.5616 39.316
CA -3.78761 -24.8555 32.9706
CA -6.66356 -22.2169 69.2009
CA -6.6289 -34.0504 35.1051
CA -27.0651 -28.4924 39.4102
CA -24.488 -32.6381 52.529
CA -4.114 -34.556 73.4153
CA -27.1566 -3.55233 55.7656
CA -9.56517 -23.5319 49.9551
CA 2.02354 -29.7213 89.0166
CA -15.9452 -17.8547 40.3137
CA -4.85078 -11.5126 47.6031
CA -3.74836 -3.26438 56.2914
CA -9.28477 -10.3383 33.799
CA -26.0707 -4.72151 57.8136
CA -22.987 -17.4348 79.9031
CA -4.9039 -13.8967 69.4173
CA -14.8057 -23.4273 58.2095
CA -8.56214 -27.2018 87.0522
CA 3.60907 -32.9653 51.1378
CA -30.1357 -36.2402 59.7086
CA -27.1848 -22.6233 88.038
CA -17.8771 -39.1771 48.0115
CA -26.1608 -32.5678 61.6823
CA -26.7508 -23.1275 51.2063
CA -1.05742 -13.6801 63.6451
CA -12.3766 -33.3765 43.9261
CA -18.5579 -6.26752 66.8795
CA 3.57475 -9.48361 61.3899
CA -27.6246 -19.8521 70.5814
CA -20.9034 -20.6543 82.664
CA -11.9364 -31.9759 52.8261
CA -31.1064 -16.7323 60.3447
CA -12.0918 -41.5178 52.4306
CA 0.171975 -7.41689 14.0895
CA -1.4484 -7.50238 57.9806
CA -3.56414 -28.0273 44.601
CA -4.78081 -21.2607 67.9011
CA -8.53884 -21.7388 74.7655
CA 6.66046 -9.448 65.6532
CA 0.122931 -13.6558 50.4077
CA -25.0372 -34.6906 62.1762
CA -7.25917 -36.3649 80.6633
CA -16.8141 -36.2707 45.8161
CA -16.4238 -23.9099 37.0146
CA 4.87582 -24.309 50.7722
CA -6.98821 -34.1837 66.7448
CA -9.38556 -15.2004 12.6642
CA 9.732 -31.3037 71.149
CA 15.6969 -21.6427 42.3544
CA 11.2165 -34.0331 69.6074
CA -23.2318 -13.2717 61.4065
CA -1.23102 -32.7479 74.6453
CA -25.9507 -22.7006 68.4704
CA -13.0773 -45.6804 67.8385
CA -16.7812 -40.7804 48.5031
CA 0.876685 -37.1545 53.204
CA -7.06848 -16.8182 49.0726
CA -8.29521 -29.7373 54.8785
CA -5.81134 -9.23035 72.8865
CA -4.41986 -24.5406 60.5311
CA -19.5636 -39.7814 43.7564
CA -4.77633 -31.2785 61.5109
CA -5.19501 -29.7381 77.7148
CA -17.6312 -7.85155 47.863
CA -22.1981 -6.7408 64.2844
CA -22.3586 -28.0321 40.6948
CA -31.5503 -5.74278 50.6588
CA -17.8243 -22.8015 81.5692
CA -10.3165 -39.1612 47.2301
CA 3.26607 -19.4002 39.6418
CA -2.28531 -13.6724 60.0349
CA 0.127408 -15.4742 50.1735
CA 1.07573 -25.9809 67.9492
CA -19.4314 -34.3405 54.2992
CA -2.38789 -9.74088 73.7786
CA -5.46775 -14.2384 31.6302
CA 3.68544 -20.8272 59.6752
CA -24.369 -35.0353 69.6602
CA 0.733471 2.24489 74.237
CA 2.93727 -15.3056 39.8125
CA 11.3483 -24.942 41.228
CA 13.0202 -27.0792 48.1969
CA -33.1468 -15.6738 75.0567
CA -23.6616 -29.3031 51.229
CA -15.7655 -32.9626 45.6974
CA -25.5683 -23.7258 58.0326
CA 9.1896 -32.626 49.7225
CA -11.0269 -40.4416 69.7962
CA 1.74796 -17.8837 62.616
CA -21.416 -41.5909 74.8813
CA 0.0381246 -17.2502 11.4658
CA -1.00941 -13.4717 54.4974
CA -16.4992 -11.0421 49.5343
CA -13.6403 -13.0583 68.4609
CA -14.865 -29.6723 86.1402
CA -12.6543 -49.3651 70.462
CA -7.27331 -6.00549 50.262
CA -0.510885 -4.16157 56.989
CA 4.81236 -39.108 42.6529
CA -6.23193 -33.2598 58.4085
CA -9.26386 -25.5087 47.3033
CA -2.44505 -42.8173 76.6229
CA -0.719713 -19.5782 15.2223
CA -13.9139 -28.6383 49.1987
CA -14.1264 -18.2415 76.2838
CA -3.61845 -13.9205 15.5469
CA 2.81492 -29.0517 60.4093
CA -2.23437 -27.62 90.7118
CA -4.91942 -19.8963 23.2672
CA -8.23542 -45.0295 65.2887
CA -2.19625 -12.2823 40.8435
CA -5.22153 -30.6451 42.3799
CA -25.9899 -35.7213 71.7246
CA -10.5782 -38.6004 42.4937
CA -2.76755 -18.2457 10.1355
CA -10.0193 -25.3191 82.1269
CA 0.952744 -26.4481 53.5143
CA -31.9493 -14.2522 62.0785
CA -13.8734 -14.8849 42.5695
CA -5.46188 -17.5744 87.8291
CA -24.3648 -32.5882 60.9606
CA -24.9466 -18.6542 67.7605
CA 13.5645 -22.7292 45.0873
CA -18.0617 -33.0256 54.6052
CA -7.56514 -33.5439 80.2305
CA 14.524 -28.9015 45.6829
CA -2.15661 -14.5196 38.9144
CA -5.74724 -16.1049 34.5411
CA -26.1369 -25.6135 50.7045
CA -30.4979 -1.84758 49.6351
CA -28.7527 -17.465 57.8066
CA -22.4987 -19.8297 47.1294
CA -10.9342 -25.975 40.5062
CA -7.66635 0.327815 53.38
CA -15.0453 -15.1698 76.4379
CA 2.92381 -34.7638 48.5019
CA -13.9565 -27.9084 63.6626
CA -23.8042 -15.4646 54.0235
CA 1.51472 -15.3081 87.9014
CA -2.80594 -30.2512 60.63
CA -24.1862 -11.7587 51.9449
CA -30.6802 -2.01798 51.4935
CA -28.7427 -18.8662 74.5181
CA -3.32282 -32.5384 69.1963
CA -11.4098 -9.83565 64.9254
CA -7.73054 -39.0625 86.5246
CA -8.45677 -13.8724 39.4365
CA -1.03845 -1.53726 9.72789
CA -3.77193 -5.06311 70.7441
CA -11.5703 -44.2009 69.7001
CA -6.76305 -17.9292 67.9549
CA -5.72069 -21.7585 47.0265
CA -13.5767 -30.651 55.119
CA -7.43208 -41.6221 72.9564
CA 0.207722 -17.2542 31.4384
CA 10.0779 -36.8741 69.7757
CA -29.9418 -34.0758 63.8292
CA -28.0316 -20.5071 60.0301
CA -30.7838 -6.48344 48.8587
CA -12.3354 -5.8817 48.5137
CA -24.1493 -24.4084 38.5295
CA -26.0168 -18.8326 80.4559
CA -16.6954 -14.1542 74.911
CA -30.2538 -15.3301 62.3199
CA -7.08419 -19.5451 80.4604
CA -10.0224 -22.3849 54.4352
CA -32.3865 -15.4229 54.2388
CA -20.4146 -14.0066 65.0589
CA -13.647 -22.8494 40.1556
CA -13.6782 -43.957 74.3379
CA -10.3095 8.60825 47.6815
CA -21.8581 -23.1266 45.1964
CA -4.53795 -27.2501 60.0524
CA -6.01261 -23.9316 17.7771
CA -28.6793 -4.88731 60.905
CA -31.2976 -9.97358 75.038
CA -14.8992 -19.9435 74.7939
CA -16.3081 -13.617 59.5725
CA -14.0423 -37.4702 52.117
CA -3.78857 -17.1476 80.4773
CA -4.73904 -19.7024 66.6442
CA -9.18045 -19.4934 50.6918
CA -18.0783 -3.7039 56.3874
CA -23.3443 -20.7655 37.7313
CA -10.4827 -0.205171 47.1339
CA -11.0363 -16.3961 82.8403
CA -7.43454 -39.5808 72.3681
CA -7.72583 -37.1709 86.8868
CA -32.2222 -35.9368 69.5291
CA -17.5223 -31.2583 41.0112
CA -6.87088 -15.9128 68.2717
CA -28.1808 -34.6754 78.0706
CA 6.66493 -26.3126 47.7841
CA -3.56261 -41.794 70.7198
CA -30.3619 -17.1442 62.8362
CA -31.0687 0.226587 49.8896
CA 7.79707 -16.8764 57.0168
CA -23.9031 -20.8894 55.5759
CA -25.2725 -27.8144 79.7115
CA -7.97824 -27.4363 36.0792
CA -25.1229 -20.012 49.6976
CA -3.32272 -25.9328 86.3649
CA -23.2777 -20.8174 72.2481
CA -19.1869 -41.8712 46.7921
CA 0.262561 -19.9192 64.1144
CA 10.6075 -7.55224 56.3541
CA 8.00187 -31.5982 70.4238
CA -16.4576 -14.7599 72.8422
CA -7.70934 -9.91721 39.3877
CA 13.2933 -24.3013 42.5746
CA 3.86736 -32.2878 72.0798
CA -4.59252 -10.7941 41.6943
CA -4.13321 -6.61473 40.4359
CA -13.2867 -38.0043 55.4726
CA -7.82915 -23.8137 69.3309
CA -10.454 -36.6988 79.1694
CA -6.63722 -18.947 33.0183
CA -8.59232 -34.9515 85.0876
CA -29.3308 -30.4855 74.9072
CA 8.53551 -3.81426 54.6909
CA 8.47757 -36.4733 49.3944
CA -32.4029 -18.5932 53.4907
CA -19.6217 -38.7608 57.248
CA -11.5134 -8.17946 47.4709
CA -4.38132 -17.8591 86.0849
CA -25.1978 -22.7602 44.685
CA -28.7294 -11.7333 67.5894
CA -8.50552 -34.7226 67.7393
CA 4.06276 -14.6381 49.5588
CA -1.53363 -23.3378 31.2116
CA -2.98777 -21.9395 85.0551
CA 2.43944 -24.1456 63.8536
CA -25.5992 -23.6002 71.1186
CA -21.0511 -40.3766 56.594
CA -2.226 -28.7008 51.1555
CA 4.91998 -23.7262 77.2703
CA -9.49611 -9.90151 65.1973
CA -29.5123 -13.5837 72.8411
CA 2.73793 -30.239 41.7074
CA 3.70261 -25.8267 50.9834
CA -4.77811 -13.6173 90.0269
CA 3.1092 -32.8579 88.8364
CA -29.414 -30.4066 54.0993
CA -1.61117 -27.9454 44.7876
CA -3.96144 -32.3146 41.5497
CA -2.3214 -27.2573 57.905
CA -18.2416 -39.359 77.1132
CA -26.7258 -24.7304 53.0302
CA -16.7454 -37.1147 43.966
CA -18.1775 -43.9818 47.9743
CA 7.49568 -32.5238 64.8037
CA -9.64213 4.08135 49.6673
CA -32.7257 -24.3591 85.4815
CA -8.43435 -4.79352 44.1116
CA -18.8612 -21.4461 55.9631
CA -7.80962 -29.7826 59.5703
CA 6.56714 -4.36836 64.7526
CA 11.4449 -27.7012 70.6901
CA 7.89253 -35.7488 64.9425
CA -2.2742 -6.40794 11.262
CA -7.30846 -20.6604 58.1047
CA -6.641 -22.8556 19.5668
CA -9.31971 -24.2502 60.1425
CA -7.16616 -43.0788 62.2111
CA -8.33364 -0.678387 48.3502
CA -6.30036 -21.916 86.4356
CA -18.8466 -4.16299 53.3729
CA -15.4517 -42.0867 44.3505
CA -22.1924 -24.1665 58.4402
CA -19.5969 -12.9962 79.285
CA -3.19713 -10.9503 61.8899
CA -0.839983 -23.0888 87.036
CA -3.36018 -33.157 46.0644
CA -30.1281 -20.5029 74.2156
CA -12.7538 1.79024 50.2801
CA -20.1073 -17.5083 51.7177
CA -26.9537 -26.4089 82.6944
CA -0.322275 -28.2375 43.4982
CA -5.89829 -11.456 49.3652
CA -35.4914 -23.9452 79.4038
CA -6.62783 -46.8948 60.1559
CA -9.33854 -18.1859 55.0565
CA 5.74709 -18.2282 44.1263
CA -4.72215 -25.1651 53.4197
CA -30.984 -22.6409 81.3964
CA -18.6053 -26.8309 54.3898
CA 0.0967122 -33.0829 68.298
CA -6.75087 -6.32307 9.98557
CA -12.6611 -30.4038 68.6569
CA -25.1496 -11.8067 67.1937
CA 6.24592 -7.35772 64.1149
CA -1.30541 -11.968 61.7113
CA -21.5568 -30.936 40.5602
CA 3.49299 -34.2186 42.8455
CA -30.5909 -20.7774 49.9091
CA -1.61417 -8.95705 10.6669
CA -3.88536 -5.60573 75.6277
CA -1.81041 -18.4705 35.976
CA 6.21332 -17.9493 55.816
CA 8.29106 -21.5655 64.8436
CA -9.89667 -45.2051 68.2161
CA -16.0338 -37.0685 48.4862
CA -26.4101 -3.17278 61.8127
CA -16.1374 -7.0665 42.8051
CA -9.59078 -26.5415 38.5631
CA -27.7146 -24.9736 73.6779
CA -17.2401 -6.91175 59.8099
CA -25.7981 -29.0885 62.1403
CA 0.669099 -22.8547 64.6928
CA -25.2616 -20.3957 53.7168
CA -17.0476 -22.9977 73.8802
CA 0.236371 -28.8069 41.7101
CA -1.87325 -25.8786 64.8311
CA -6.91431 -38.6195 80.6484
CA -4.52734 -32.3269 71.2722
CA -18.1126 -22.3466 84.7138
CA -32.3375 -18.8043 77.4473
CA -3.61211 -1.01927 55.227
CA -26.148 -19.6494 60.9747
CA -12.1556 -22.2795 72.2598
CA 3.99426 -22.7178 64.4506
CA -4.25604 -44.3359 65.4405
CA -9.69319 -34.6203 38.6735
CA -11.6555 -30.7479 41.2213
CA -17.9388 -13.6051 60.37
CA -4.10191 -14.4235 13.2306
CA -6.65918 -37.2202 40.8813
CA -17.3011 -15.7205 33.9749
CA -1.84129 -11.9338 32.9669
CA -2.83149 -8.2834 47.8966
CA -17.517 -7.46452 65.969
CA 9.64714 -20.4216 45.3117
CA -9.70987 0.296193 53.3646
CA -5.73536 -12.0415 73.5736
CA 2.55261 -10.4421 70.9769
CA -28.21 -20.638 81.9969
CA 7.70753 -27.3564 41.7469
CA -28.5409 -33.9542 57.7
CA -6.96931 -8.83302 61.3668
CA -28.478 -15.9735 74.8138
CA -16.3274 -6.1818 70.375
CA -27.271 -33.5534 74.3389
CA -10.5497 -19.3 81.3092
CA -12.7079 -20.4765 57.6566
CA 1.83622 -18.5944 46.3439
CA -17.1313 -21.567 33.8204
CA -2.89433 -9.92059 43.2603
CA -25.6654 -17.4792 74.9708
CA -10.2915 -15.317 36.9306
CA -18.0778 -2.24538 59.9608
CA 9.9656 -22.5048 41.2728
CA -2.7002 -17.3873 29.336
CA -27.7396 -28.2254 74.7815
CA -7.36547 -34.9425 71.7842
CA -5.70758 -35.0738 42.7546
CA -0.112506 -8.83369 64.5805
CA -30.367 -31.9748 45.7804
CA -10.0956 -22.5293 38.1155
CA -19.2918 -22.1166 48.5636
CA -14.5181 -18.0163 52.1435
CA -1.8325 -1.16754 70.947
CA -4.60143 -10.9337 60.6095
CA -28.3255 -32.1182 60.1938
CA -15.4625 -11.5056 70.3116
CA -18.3456 -5.84461 50.1976
CA -32.6466 -9.82477 52.4591
CA -16.0931 -42.5772 51.2637
CA -9.30293 -24.5163 35.7505
CA -33.8338 -21.4201 77.4652
CA -3.49226 -12.6029 8.79876
CA -6.03602 -32.9242 62.2581
CA -21.3796 -14.1935 55.9405
CA -19.9456 -30.3676 46.8956
CA -12.4257 -45.7237 61.843
CA -30.5561 -22.726 79.3728
CA 0.0924742 -18.7059 40.487
CA -14.5411 -16.7414 38.8516
CA 6.95866 -28.2255 75.2452
CA -20.9109 -10.5483 64.0837
CA -6.36407 -30.8076 68.9495
CA -0.750509 -23.2153 70.0344
CA -0.89054 -9.80887 72.7311
CA 2.77278 -21.8094 43.2232
CA -16.7062 -11.1547 59.5804
CA -20.3233 -10.1321 33.7442
CA -6.89291 -4.9915 57.3541
CA 3.02851 -21.5059 69.1826
CA -26.9486 -20.4527 54.6468
CA -4.10172 -13.8948 44.6779
CA -27.9762 -36.0011 61.2691
CA -8.34707 -24.697 86.8754
CA -12.9915 -26.8086 35.4497
CA -32.0959 -7.52719 47.8424
CA -29.7122 -6.47687 51.5278
CA -17.813 -41.0084 74.7362
CA -9.79414 -38.5053 86.3167
CA -3.93886 -33.6871 61.2444
CA -18.329 -28.3214 46.4504
CA -4.29155 -27.1721 50.2122
CA -10.8052 -42.1439 59.9459
CA -3.24039 -24.623 16.5378
CA -11.0295 -12.3883 39.5216
CA -14.2716 -44.6061 71.593
CA -24.3683 -8.61089 60.9294
CA 1.73213 -32.8274 92.0124
CA -32.8131 -25.8054 53.2978
CA 2.02857 -27.1034 85.8161
CA -14.125 -19.9704 60.281
CA -17.6301 -19.7606 59.4115
CA -23.8378 -31.7316 44.4953
CA -27.7683 -40.2224 56.6363
CA -24.7634 -32.4679 50.044
CA 4.23495 -32.5461 48.3805
CA -2.89903 -5.26209 9.16018
CA -19.5568 -29.6596 57.8485
CA -21.3797 -36.8639 43.9383
CA -27.0182 -9.1567 61.8161
CA -1.41077 -26.3754 43.3878
CA -15.3897 -2.45791 65.918
CA -12.6671 -5.99617 45.9681
CA -11.7184 -38.862 85.6638
CA -4.88331 -18.4575 32.5623
CA 5.34973 -28.1409 73.5762
CA 0.27355 -19.8139 48.7835
CA -14.7423 -18.3386 73.8417
CA -4.1281 -42.8474 74.0774
CA -1.59569 -4.97962 54.2487
CA -3.14522 -33.8265 74.8129
CA -31.052 -30.7786 76.3994
CA -11.8616 -30.1123 84.292
CA -31.1079 -32.9187 60.195
CA -12.5346 -13.7898 55.3977
CA -26.6858 -29.8555 65.0809
CA -22.0032 -16.7914 83.4456
CA -7.42626 -13.1568 8.60442
CA 1.47818 -35.6349 72.2415
CA -11.3984 -19.2192 56.5378
CA -12.408 -23.0451 50.5046
CA -2.6647 -11.0836 10.1796
CA -25.4592 -37.3395 53.1345
CA -26.4848 -6.67058 66.4481
CA -24.0057 -31.4484 67.7584
CA -3.72784 -14.2884 87.0919
CA -3.77295 -39.3388 61.2889
