489

CA -28.8633 -14.22 64.6685
CA 1.73979 -25.0369 68.1528
CA -12.8682 -54.3869 54.7485
CA -19.5975 -18.9229 53.2283
CA 0.0584051 -34.1377 86.7627
CA -28.8635 -17.4085 72.9454
CA -30.2439 -14.7029 52.4052
CA -5.39279 -12.7209 4.12995
CA -20.2895 -22.295 45.5228
CA -8.71949 -21.6657 44.657
CA -24.534 -20.5712 85.2606
CA -5.75249 -23.6268 84.9879
CA 9.48041 -13.7738 68.8827
CA -26.1228 -31.3189 48.9301
CA -25.0563 -26.2738 45.8808
CA -4.57813 -25.7095 37.7681
CA 17.226 -30.7202 47.0604
CA -15.3891 -31.4879 86.9266
CA -31.5508 -7.81975 45.2941
CA -26.6162 -24.9397 42.4863
CA -11.9559 -17.8172 58.627
CA -27.9425 -21.0931 70.0026
CA -26.1675 -28.2955 77.3709
CA -3.1848 -51.6414 62.6482
CA -12.0084 -26.8728 67.4936
CA -8.887 -37.3347 73.3945
CA -5.16847 -11.2046 49.2776
CA -27.7199 -16.7619 46.2704
CA 1.95655 -25.0571 87.9531
CA 9.77141 -26.5238 47.5957
CA -19.8679 -35.135 73.5454
CA -5.15596 -15.8775 34.3049
CA -9.06029 -28.2552 62.2513
CA -6.32793 -12.8152 63.283
CA -16.1031 -15.8643 70.1608
CA -13.0728 -13.3438 59.9254
CA -34.0323 -32.882 51.7857
CA -14.4446 -23.9279 39.7184
CA -28.0912 -36.9257 65.0911
CA -6.68941 -8.97016 8.50355
CA -10.1768 -31.7396 82.2308
CA 3.97244 -6.31885 54.6147
CA -3.32909 -29.7022 90.5194
CA -4.61909 -18.3652 54.5904
CA 3.80407 -25.8647 32.8806
CA -18.9495 -31.2829 79.5642
CA -22.6577 -14.9821 56.886
CA -8.85215 -44.0881 79.4155
CA -32.2626 -38.8056 74.7087
CA -4.62898 -10.098 68.6267
CA 6.51016 -26.1277 60.3303
CA -15.4798 -38.6045 44.4782
CA 5.66741 -37.1334 69.801
CA -9.65458 -32.8348 54.1007
CA -11.0123 -41.5566 66.8971
CA -9.22845 -42.6123 57.9613
CA 10.1481 -29.9433 46.0587
CA -29.1386 -40.4273 71.1607
CA -7.00577 -31.9813 82.8511
CA -27.6658 -37.454 77.7839
CA -33.9292 -31.9281 72.1313
CA -13.2412 -23.0461 63.315
CA -3.13411 -33.8448 75.2311
CA -7.18832 -12.735 66.917
CA -18.9116 -39.0159 72.9287
CA 6.13912 -21.4068 51.6865
CA -5.42374 -38.2893 48.9478
CA -12.4362 -37.7479 58.5528
CA -11.7439 -23.6823 45.5022
CA 8.88274 -34.678 44.2789
CA -24.4171 -16.4496 50.638
CA -32.1989 -13.3528 71.2883
CA -0.567813 -19.232 32.5183
CA -17.6241 -8.09961 37.1648
CA 0.190574 -26.838 60.6394
CA -3.68669 -36.421 83.45
CA -19.7888 -6.64386 52.2305
CA -20.8492 -15.0431 71.967
CA -20.8709 -38.6335 66.1078
CA -29.5096 -5.83893 50.0339
CA -8.39079 -17.3482 44.4103
CA -28.9611 -15.0258 59.2703
CA -8.22263 -25.4382 75.4927
CA -30.6087 -31.0978 47.1484
CA -7.63513 -50.3054 63.6338
CA -31.0923 -28.6798 73.5739
CA 4.22504 -35.6222 49.9953
CA -29.2178 -29.7776 72.0297
CA 5.07487 -19.5489 51.241
CA 4.87582 -24.309 50.7722
CA -23.2361 -22.0128 45.2894
CA -1.33947 -21.8416 22.3154
CA 5.28944 -38.4744 67.6868
CA -13.7185 -16.3677 72.9488
CA 11.2165 -34.0331 69.6074
CA -25.8107 -32.0045 53.083
CA -13.7266 -21.6597 61.7087
CA -22.1339 -18.6584 69.3954
CA 5.09789 -30.0279 66.4268
CA -18.3523 -21.849 65.8257
CA -28.7929 -32.7488 46.9884
CA -12.2664 -26.4518 45.314
CA -8.29521 -29.7373 54.8785
CA -5.07161 -34.6508 38.7552
CA -0.0959866 -20.1517 22.6624
CA -12.9105 -31.2787 54.4119
CA -27.4648 -12.7794 86.1433
CA -13.2852 -32.7947 81.8374
CA -4.96759 -26.1295 58.9159
CA -14.8448 -37.9055 63.292
CA -21.5506 -12.2656 49.6935
CA -8.03602 -21.9266 33.0163
CA -28.5007 -32.4895 62.6531
CA -6.49895 -46.3107 74.0855
CA -8.04566 -22.1119 61.7566
CA -7.91341 -46.2825 57.612
CA -1.88895 -10.5978 50.9409
CA -9.51947 -26.3768 85.8429
CA -18.6204 -4.50953 49.1461
CA -34.2599 -28.6253 73.7028
CA 0.103072 -14.2026 57.1226
CA -22.3341 -31.7009 38.876
CA -6.52353 -40.2971 41.3336
CA 7.25823 -32.2925 47.6088
CA -5.69066 -27.559 50.6023
CA -30.0575 -25.8418 75.4784
CA 6.2022 -34.5048 69.4149
CA -9.25745 -3.05432 46.7188
CA -8.82136 -37.9931 62.9656
CA -7.56118 -31.5043 56.3348
CA -31.4765 -24.6639 86.4417
CA -10.8321 -21.5907 35.7399
CA -10.1758 -31.6019 84.6715
CA -14.9337 -34.2692 76.7576
CA 2.40377 -11.992 51.0066
CA -6.78626 -40.6108 46.1953
CA -37.8746 -18.9527 65.4559
CA -4.79971 -40.8036 78.2604
CA -15.8254 -20.5895 48.8031
CA -8.04266 -36.6968 49.1711
CA -30.518 -32.867 61.938
CA 3.56909 -7.5476 52.0064
CA -7.81671 -45.1015 65.463
CA -9.26537 -51.8862 56.1596
CA -20.0839 -37.0311 67.8999
CA -8.00315 -15.4787 59.5109
CA -4.83663 -36.9039 69.4442
CA -0.719713 -19.5782 15.2223
CA 11.7253 -30.8349 51.7916
CA -25.5919 -26.3402 75.4882
CA -3.61845 -13.9205 15.5469
CA -33.7494 -25.5346 86.3245
CA 5.4557 -28.4928 49.8698
CA -26.1165 -6.19933 58.8587
CA -11.8482 -49.2232 58.2157
CA -0.48462 -22.5353 18.9526
CA -23.0702 -36.8577 56.5781
CA -23.3207 -23.445 58.493
CA -14.1931 -26.6223 53.1123
CA -2.76755 -18.2457 10.1355
CA -27.8585 -26.8644 62.5081
CA 0.952744 -26.4481 53.5143
CA -31.9493 -14.2522 62.0785
CA -9.2344 -12.2116 43.8052
CA -28.7282 -30.4423 74.4804
CA -24.3648 -32.5882 60.9606
CA -32.269 -33.5548 59.6622
CA -9.78639 -41.4183 74.7524
CA -3.34008 -26.9903 50.9761
CA -31.3014 -8.57165 71.1411
CA -13.4718 -11.341 39.9743
CA -6.92806 -23.267 36.5158
CA -7.10548 -22.3307 87.4614
CA -12.7282 -30.7561 45.5484
CA -6.87008 -32.6735 73.9596
CA -27.4024 -14.4482 85.0318
CA -18.0973 -20.8375 80.0388
CA -16.4091 -28.087 47.195
CA -1.5505 -32.137 87.4959
CA -11.2671 -23.823 74.04
CA -8.46204 -31.4256 70.8595
CA 1.88348 -16.2517 60.9935
CA -25.8831 -38.564 72.0338
CA -15.6657 -22.3259 29.1794
CA -0.425333 -24.6731 66.5647
CA -31.1774 -22.545 86.9326
CA -29.5612 -22.8992 88.3111
CA -35.2035 -22.7328 46.7086
CA 2.16376 -25.503 85.0851
CA -36.3483 -30.3296 53.5296
CA -18.1381 -16.2098 33.7607
CA -8.45677 -13.8724 39.4365
CA -8.55851 -13.8409 2.95094
CA -9.48216 -40.9866 68.6752
CA -30.1281 -4.65979 47.0192
CA 6.77602 -31.5186 42.7052
CA -33.1735 -25.0443 72.0083
CA -28.7052 -35.2312 52.6853
CA -13.8337 -37.757 51.021
CA -35.7705 -36.8146 49.8375
CA 6.03766 -25.2779 28.3031
CA -28.1053 -30.3408 49.0265
CA -25.0431 -24.2093 82.8803
CA -23.7737 -31.9918 44.178
CA -15.636 -16.4915 53.8849
CA -13.2489 -27.7008 76.339
CA -24.4158 -26.1554 41.901
CA 6.87581 -38.9908 51.5646
CA -34.7662 -18.2731 72.2198
CA -20.8685 -11.8658 56.7205
CA -35.484 -14.5568 59.4393
CA 9.4177 -29.1804 41.6083
CA -15.3769 -12.415 33.5338
CA -22.4093 -38.072 75.3067
CA -13.7688 -36.5476 55.9347
CA -28.939 -18.5445 64.134
CA -21.551 -31.2539 49.0965
CA -12.5695 -21.8437 78.197
CA -6.01261 -23.9316 17.7771
CA -9.50678 -36.6376 64.1826
CA -25.398 -25.8574 85.8752
CA -27.8131 -17.6222 62.6499
CA -19.5101 -13.1677 55.3186
CA -22.9354 -22.5367 80.962
CA -14.9073 -28.0873 45.1637
CA 8.06568 -30.2142 56.1103
CA -9.57543 -8.84484 42.4013
CA -18.4337 -32.1797 55.6549
CA -30.857 -38.8525 73.2545
CA -7.38057 -17.1071 27.0401
CA -26.4403 -20.7104 68.8106
CA 1.71457 -16.641 30.9137
CA -21.4415 -39.4017 53.5276
CA -20.7563 -25.776 37.2994
CA -16.4338 -36.6598 53.3112
CA -30.7819 -9.56679 61.3864
CA -19.4767 -38.3973 53.3079
CA -18.0508 -17.642 70.029
CA -22.004 -22.5421 82.8514
CA -29.604 -33.5497 56.2891
CA -5.31823 -18.0691 44.158
CA -22.4645 -37.7215 70.2749
CA -27.7663 -35.1969 43.0409
CA 4.85665 -20.2271 40.964
CA 1.0977 -16.1155 65.8183
CA -30.7587 -20.9098 45.8912
CA -11.9188 -11.127 64.5381
CA -14.2771 -1.70456 48.3541
CA -6.75764 -13.0957 70.3405
CA -8.47886 -35.9625 36.7976
CA -18.4567 -22.2531 45.8332
CA -13.0073 -36.3833 43.8908
CA -6.69795 -22.9249 34.0529
CA -21.945 -32.5911 42.2186
CA -14.1168 -29.8278 85.9507
CA -1.95232 -16.8303 59.403
CA -0.133422 -14.3854 5.9906
CA -30.2019 -11.556 51.7153
CA -29.7322 -15.8508 60.9503
CA -2.4048 -23.5625 41.9569
CA -29.1114 -11.4157 71.5725
CA -7.05075 -19.5801 66.5612
CA -23.9037 -25.6449 77.5021
CA 3.43774 -16.714 52.5598
CA 8.53551 -3.81426 54.6909
CA -34.5772 -5.14313 67.0464
CA -0.255989 -20.4806 63.2164
CA -10.171 -41.452 55.6465
CA -7.00782 -36.5033 53.1429
CA -0.384098 -23.208 89.9274
CA -25.1978 -22.7602 44.685
CA -26.1111 -29.7509 85.9571
CA -17.2786 -34.1877 77.5662
CA 1.56506 -22.8379 88.9068
CA -35.2764 -14.4972 62.6925
CA -23.1739 -28.0075 38.5719
CA 12.497 -13.6593 68.5839
CA 2.51606 -17.0078 64.1093
CA -18.1084 -38.5185 51.9858
CA -20.6093 -19.76 68.6529
CA -5.92065 -19.1115 46.3079
CA -13.882 -24.0089 76.3088
CA -17.3395 -33.5729 59.4699
CA -28.724 -14.2385 47.7661
CA -7.87207 -19.6563 84.9502
CA -20.2806 -35.6222 69.4435
CA -20.658 -36.6069 57.5715
CA -11.4803 -45.8989 58.9377
CA -22.9266 -2.1089 49.6845
CA 3.18716 -14.3752 60.5156
CA -30.5273 -31.5447 63.3372
CA -28.1522 -7.48636 50.0115
CA -15.1112 -11.2349 55.1113
CA -18.4408 -44.7529 72.7463
CA -10.0031 -40.172 62.2942
CA -23.0404 -13.3616 50.5212
CA -26.0657 -19.5729 88.3454
CA -13.1345 -36.5373 67.3297
CA -3.34209 -21.1856 89.0647
CA -34.2585 -38.2355 51.2308
CA -14.4607 -11.5987 63.411
CA -31.4384 -25.6904 55.9146
CA -18.2548 -29.9744 67.4602
CA -9.31972 -12.0534 69.8351
CA -4.35261 -21.971 78.6411
CA -7.30846 -20.6604 58.1047
CA -36.0026 -30.1352 49.898
CA -29.5988 -28.6647 69.2043
CA -4.23545 -31.4637 73.2634
CA -9.4721 -10.7815 40.7582
CA -6.063 -9.77079 60.7112
CA -13.561 -32.8368 76.4814
CA -15.4517 -42.0867 44.3505
CA 4.07705 -23.6983 55.1889
CA -9.25486 -40.9511 80.0143
CA -32.507 -30.389 72.6701
CA -32.3631 -25.1397 54.4099
CA -18.6397 -27.417 31.0057
CA -3.99802 -15.9617 40.8922
CA -9.54686 -5.59249 46.5824
CA -8.0863 -34.5567 52.131
CA -12.9755 -29.6746 68.3084
CA -5.29427 -37.7596 77.4343
CA -15.689 -7.65241 51.9915
CA -30.2445 -12.435 59.0789
CA -6.62783 -46.8948 60.1559
CA -0.464282 -18.0749 64.7684
CA -7.75794 -5.52981 57.2179
CA -6.16296 -24.965 70.6342
CA 15.3255 -32.7167 46.6984
CA -4.91672 -12.2632 42.8699
CA -2.01728 -11.7785 64.4141
CA -6.75087 -6.32307 9.98557
CA 4.98605 -30.3495 59.2524
CA -17.4133 -7.5393 65.9701
CA -6.46225 -28.2796 84.7934
CA -21.5085 -3.7849 52.4828
CA -21.5568 -30.936 40.5602
CA -16.4395 -21.77 44.8659
CA -8.03713 -33.3591 70.6459
CA -22.267 -30.48 59.3865
CA -31.3796 -9.51487 74.8499
CA -25.3311 -32.4662 66.9472
CA -4.95657 -20.6193 29.1656
CA -3.1647 -23.4661 88.3229
CA -9.89667 -45.2051 68.2161
CA 8.12876 -27.3876 50.3581
CA -28.7737 -25.7976 76.847
CA -28.2955 -29.1232 76.4462
CA -27.4371 -13.9395 50.2598
CA -16.8554 -16.6692 67.3231
CA -11.8174 -12.0538 60.6806
CA -25.6914 -3.31328 50.2439
CA 0.669099 -22.8547 64.6928
CA 12.3206 -28.4022 50.8265
CA 5.79768 -28.6367 59.2483
CA -8.87314 -41.7428 77.9801
CA -3.88666 -9.7746 65.6341
CA -21.1923 -27.0898 68.2811
CA -25.5003 -35.8539 65.6089
CA -23.2126 -10.3883 66.7196
CA -14.3324 -20.2663 55.436
CA -16.4128 -6.91176 61.6496
CA -31.3611 -18.9773 44.6633
CA -21.9852 -40.8946 52.1691
CA 7.71587 -23.5175 51.2471
CA -0.25319 -11.1944 51.4207
CA 3.23937 -26.4187 48.4226
CA -31.7258 -13.488 55.5019
CA -9.2488 -40.6314 44.5726
CA -15.7578 -22.02 61.5612
CA -33.9746 -36.6343 52.6634
CA -6.07217 -33.482 40.0315
CA -9.76341 -29.0337 55.7677
CA -30.711 -23.0573 62.6846
CA 4.10221 -28.9278 64.581
CA -11.5147 -43.9348 74.8951
CA 1.52655 -9.57537 54.2611
CA -5.73536 -12.0415 73.5736
CA -5.75106 -14.6325 6.82769
CA 2.0614 -19.4091 29.9991
CA -6.85375 -25.3227 59.0535
CA -20.6914 -3.21446 50.0368
CA -0.418093 -15.8813 41.2842
CA -26.6122 -7.48609 60.4902
CA -23.3726 -4.14168 49.3852
CA -4.94275 -24.2153 34.1411
CA -28.1177 -23.4794 58.3034
CA -18.659 -19.8378 77.1568
CA -26.066 -29.8466 90.3845
CA -11.7874 -14.9139 27.8434
CA -26.4983 -17.6977 87.8972
CA -11.5953 -16.0684 42.6348
CA 1.83341 -28.0118 50.7007
CA 4.06104 -24.1713 48.8119
CA -14.9543 -41.8146 60.7679
CA -2.7002 -17.3873 29.336
CA 0.456305 -13.4056 62.1948
CA -0.323316 -25.1931 58.5247
CA -5.70758 -35.0738 42.7546
CA -13.4364 -23.9633 71.7969
CA -12.5431 -31.6408 70.5917
CA -27.7358 -9.22106 68.2835
CA -7.42713 -32.6974 85.0785
CA -8.10413 -38.1925 39.2464
CA -32.8677 -26.9403 73.5567
CA -4.60143 -10.9337 60.6095
CA -23.0116 -40.1345 72.3472
CA -9.56743 -8.49952 55.0057
CA -25.8164 -25.803 36.2115
CA -16.2799 -22.8759 26.0749
CA 12.7219 -31.1683 47.071
CA -8.72005 -37.4374 41.6271
CA -9.05341 -39.3204 37.5346
CA -3.49226 -12.6029 8.79876
CA -16.1312 -27.6275 62.8638
CA -8.59172 -30.1736 60.4666
CA -25.7891 -24.4449 46.4036
CA -4.2265 -9.10663 8.15417
CA -28.7323 -20.6269 68.2115
CA -19.3302 -30.0418 49.1199
CA -20.4265 -24.896 47.4131
CA -13.8708 -14.3292 72.5714
CA -10.1125 -41.8256 70.7211
CA -24.0259 -14.5267 71.0109
CA -10.2609 -20.2129 76.2556
CA -5.44529 -10.2659 11.886
CA -27.3934 -9.1441 48.8131
CA -9.72797 -36.1303 39.818
CA -20.3233 -10.1321 33.7442
CA -5.47917 -48.3358 58.407
CA -10.7822 -36.2916 48.2415
CA 0.812409 -15.7439 54.4872
CA -0.0260089 -22.0711 32.6202
CA -29.3156 -9.47057 50.4876
CA 2.16624 -29.7079 88.4239
CA -18.3507 -28.5217 36.7287
CA -32.0959 -7.52719 47.8424
CA -35.6219 -18.1756 61.851
CA -6.07716 -38.8932 60.3049
CA -2.41102 -23.2749 34.4963
CA -22.4302 -29.7206 86.8336
CA 1.77723 -26.8873 90.3927
CA -29.8304 -6.00798 64.697
CA -9.43314 -11.0853 -0.428748
CA -3.24039 -24.623 16.5378
CA -17.2983 -24.5403 35.0395
CA -13.6787 -18.8505 75.924
CA -8.9735 -7.92681 61.0295
CA -15.6905 -21.5838 36.2301
CA 5.1163 -25.1599 56.1814
CA -38.4078 -31.1866 45.5863
CA -12.7915 -21.0732 54.229
CA 13.5585 -33.3723 69.7025
CA -10.0462 -25.3283 38.8478
CA -29.5577 -29.4149 62.8041
CA -30.0557 -18.3102 48.1376
CA -4.42084 -10.2299 40.7885
CA -23.163 -16.4279 61.7694
CA -26.5358 -18.2689 54.3553
CA -24.1306 -18.4435 67.2144
CA -8.46955 -50.0514 67.2717
CA -34.4387 -22.2827 74.5953
CA -20.5084 -14.0018 53.9127
CA 3.43595 -5.06526 50.8227
CA -24.0554 -10.0144 59.0227
CA -16.5108 -18.9084 74.8128
CA -16.0982 -24.2408 43.1711
CA -30.2525 -13.7993 75.7336
CA 0.506909 -20.0138 27.1073
CA -13.2141 -28.0922 43.0791
CA -22.2195 -29.1301 40.6103
CA -14.3806 -27.483 64.4279
CA -8.25587 -23.6713 76.0082
CA -9.62213 -11.1928 8.34596
CA -17.1087 -24.4289 32.9392
CA -10.2301 -19.4592 54.4764
CA -33.053 -22.4552 42.5439
CA 5.12751 -14.8578 66.7425
CA -11.1174 -16.6227 33.3001
CA -26.7667 -7.82094 62.5
CA -41.7739 -21.0395 66.0886
CA -8.45996 -28.8735 67.3686
CA -2.6647 -11.0836 10.1796
CA -3.19382 -44.8177 71.7622
CA -0.248029 -19.2435 43.3448
CA -17.7152 -25.8668 31.8507
CA -2.86211 -8.42787 74.5929
CA -12.1394 -16.225 31.3943
