489

CA -20.0033 -37.3365 73.8498
CA 1.73979 -25.0369 68.1528
CA -36.3836 -29.3333 48.2378
CA -12.2306 -23.3541 56.3433
CA -16.2902 -22.5533 35.1568
CA 1.9833 -28.617 65.9155
CA -30.2439 -14.7029 52.4052
CA -5.39279 -12.7209 4.12995
CA -20.2895 -22.295 45.5228
CA -14.8512 -12.5045 52.5324
CA -24.534 -20.5712 85.2606
CA -18.2722 -3.07691 49.978
CA 9.48041 -13.7738 68.8827
CA 4.10331 -29.5525 68.8728
CA -16.3507 -41.73 53.8632
CA -31.9668 -38.8269 80.4744
CA -34.8316 -16.8517 45.691
CA 2.05177 -30.6092 70.4355
CA -15.5942 -14.1652 67.7211
CA -35.5185 -19.6867 46.6412
CA -11.9559 -17.8172 58.627
CA -5.97688 -32.526 83.8466
CA -16.2528 -37.8494 42.7223
CA -3.1848 -51.6414 62.6482
CA 5.20721 -19.5802 46.3831
CA -8.887 -37.3347 73.3945
CA -5.16847 -11.2046 49.2776
CA -23.7271 -32.124 57.0303
CA 1.95655 -25.0571 87.9531
CA 9.77141 -26.5238 47.5957
CA -13.2839 -27.444 41.3193
CA -5.15596 -15.8775 34.3049
CA -27.2117 -13.6578 69.7472
CA -26.365 -35.1731 47.5311
CA -33.2117 -36.836 67.4029
CA -15.8922 -20.0078 75.7021
CA -34.0323 -32.882 51.7857
CA -14.4446 -23.9279 39.7184
CA -28.0912 -36.9257 65.0911
CA -6.68941 -8.97016 8.50355
CA -2.09028 -21.9017 89.9853
CA 3.97244 -6.31885 54.6147
CA -11.9355 -23.0253 53.1405
CA -4.61909 -18.3652 54.5904
CA 3.80407 -25.8647 32.8806
CA 2.24532 -7.81327 54.7075
CA 8.82341 -24.4587 50.0628
CA -8.85215 -44.0881 79.4155
CA -28.5965 -26.8804 46.4054
CA -6.31251 -30.4943 62.0039
CA -19.9723 -41.7816 48.7242
CA -0.213814 -13.5289 64.4534
CA -14.0658 -6.39193 62.3473
CA 3.61968 -14.7766 67.3685
CA -11.0123 -41.5566 66.8971
CA -25.3077 -18.3718 51.2447
CA -25.7674 -38.6778 68.9996
CA -27.8155 -15.1649 55.6648
CA -7.5014 -38.8175 80.5503
CA -27.6658 -37.454 77.7839
CA -10.5914 -32.7455 34.9688
CA -26.5649 -23.5613 66.7211
CA -1.33378 -25.3078 88.4103
CA -10.3447 -33.1143 70.5343
CA -17.985 -6.58193 59.2443
CA -23.138 -44.2969 75.0251
CA -4.61102 -21.2062 29.9976
CA -12.4362 -37.7479 58.5528
CA -25.5801 -37.0752 70.1921
CA -4.39072 -10.7737 15.5571
CA 2.17753 -21.8812 64.9554
CA -34.4456 -34.7424 51.6023
CA -0.567813 -19.232 32.5183
CA -17.6241 -8.09961 37.1648
CA 3.49631 -26.1322 62.7425
CA -3.68669 -36.421 83.45
CA -21.6719 -33.9426 60.1349
CA -20.8492 -15.0431 71.967
CA -22.2214 -4.84082 49.6412
CA -32.4498 -29.3296 74.6581
CA -8.39079 -17.3482 44.4103
CA -28.9611 -15.0258 59.2703
CA -17.6124 -12.8436 66.4065
CA -30.6087 -31.0978 47.1484
CA -7.63513 -50.3054 63.6338
CA -26.9217 -32.7173 74.8408
CA 4.22504 -35.6222 49.9953
CA -29.2178 -29.7776 72.0297
CA 5.07487 -19.5489 51.241
CA -6.3514 -9.10575 69.3768
CA -17.706 -30.6429 71.297
CA -1.33947 -21.8416 22.3154
CA -12.2733 -18.5533 30.3637
CA -30.7641 -40.1703 76.1426
CA -23.0996 -32.4848 29.8112
CA 0.812843 -20.6195 31.2401
CA -13.7266 -21.6597 61.7087
CA -22.0656 -8.3626 51.8888
CA -22.4468 -34.1475 38.542
CA -18.3523 -21.849 65.8257
CA 8.38481 -33.6141 48.7508
CA -9.16261 -11.0347 71.4536
CA -14.9832 -23.9015 65.7724
CA -5.07161 -34.6508 38.7552
CA -15.1422 -32.6751 67.3854
CA -12.9105 -31.2787 54.4119
CA -35.3564 -16.4847 63.5542
CA -20.5309 -32.1948 56.7018
CA -14.6372 -36.0727 88.3839
CA -14.8448 -37.9055 63.292
CA -24.1301 -6.9609 56.6632
CA -12.8224 -42.7318 79.0273
CA -28.5007 -32.4895 62.6531
CA -6.49895 -46.3107 74.0855
CA -8.33032 -30.1082 89.9793
CA -33.4049 -19.5423 48.6936
CA -24.703 -13.3922 61.4524
CA -9.51947 -26.3768 85.8429
CA -15.2991 -21.8687 52.8014
CA -9.47073 -11.3321 6.33572
CA 0.103072 -14.2026 57.1226
CA -33.0564 -14.4104 59.2173
CA -6.52353 -40.2971 41.3336
CA 1.87087 -33.9982 62.8382
CA -17.4301 -21.0371 36.4733
CA -19.7702 -19.4037 53.0713
CA 6.2022 -34.5048 69.4149
CA -18.9531 -36.0711 61.5238
CA -4.93378 -11.6271 2.58096
CA -7.56118 -31.5043 56.3348
CA -14.6124 -22.5343 74.955
CA -21.5455 -38.7279 39.9845
CA -12.394 -26.8943 54.9457
CA -8.06302 -52.3234 62.5838
CA 7.44193 -34.2737 62.3716
CA -2.39072 -19.1805 47.3176
CA 1.48708 -11.791 66.1449
CA -1.57246 -23.219 36.827
CA -6.6186 -27.1789 80.784
CA -10.2996 -26.4019 55.445
CA -30.518 -32.867 61.938
CA -3.97172 -29.3036 59.9587
CA -7.81671 -45.1015 65.463
CA -19.038 -22.75 34.8834
CA -20.0839 -37.0311 67.8999
CA -8.00315 -15.4787 59.5109
CA -34.0104 -17.0219 65.9033
CA -0.719713 -19.5782 15.2223
CA 11.7253 -30.8349 51.7916
CA -18.6805 -28.4545 60.6624
CA -3.61845 -13.9205 15.5469
CA -31.355 -37.9136 66.8908
CA 12.3844 -25.17 50.4896
CA -26.1165 -6.19933 58.8587
CA -11.8482 -49.2232 58.2157
CA -0.48462 -22.5353 18.9526
CA 3.86022 -32.8921 61.0818
CA -14.736 -15.9662 68.4286
CA -14.1931 -26.6223 53.1123
CA -2.76755 -18.2457 10.1355
CA -27.8585 -26.8644 62.5081
CA 0.952744 -26.4481 53.5143
CA -20.3898 -15.2276 63.0478
CA -9.2344 -12.2116 43.8052
CA 7.71884 -28.7917 69.6105
CA -32.9536 -29.4037 55.856
CA -33.2052 -36.7444 70.9602
CA -9.78639 -41.4183 74.7524
CA -18.5796 -31.8503 77.009
CA -8.78155 -42.0666 50.2843
CA -13.4718 -11.341 39.9743
CA -25.6118 -17.6023 63.832
CA -13.2652 -34.8337 86.5772
CA -8.1403 -29.9339 42.9758
CA -6.87008 -32.6735 73.9596
CA -27.4024 -14.4482 85.0318
CA -18.0973 -20.8375 80.0388
CA -16.4091 -28.087 47.195
CA -8.92458 -35.9833 71.38
CA -35.3083 -23.8847 48.5098
CA -15.2751 -39.6655 60.5546
CA 1.88348 -16.2517 60.9935
CA -13.428 -47.0018 69.679
CA -32.6607 -38.1853 76.8725
CA -0.425333 -24.6731 66.5647
CA -6.06919 -32.3859 76.0558
CA -26.1917 -19.0476 71.443
CA -35.2035 -22.7328 46.7086
CA 0.653063 -20.5107 54.0636
CA -36.3483 -30.3296 53.5296
CA -18.1381 -16.2098 33.7607
CA 0.00391002 -10.4248 56.0289
CA -30.6738 -24.7832 76.5449
CA 2.67842 -32.543 70.198
CA -30.1281 -4.65979 47.0192
CA -28.565 -35.078 60.3639
CA -20.3234 -10.6841 64.4212
CA -34.1139 -25.7951 57.5888
CA -8.60715 -16.1887 31.4362
CA -35.7705 -36.8146 49.8375
CA 0.992036 -24.7678 56.7132
CA -19.5598 -39.3762 53.2758
CA -25.0431 -24.2093 82.8803
CA -9.99573 -42.7964 47.2665
CA -5.87154 -11.0301 63.0084
CA -13.2489 -27.7008 76.339
CA -24.4158 -26.1554 41.901
CA -14.9369 -13.1833 65.3665
CA -25.3102 -28.2521 37.1259
CA -10.2622 -15.2352 3.62007
CA -35.484 -14.5568 59.4393
CA -26.3887 -15.8616 53.7098
CA -16.5788 -31.7039 84.6561
CA -19.7765 -36.116 54.5163
CA -7.15905 -40.0157 35.1543
CA -33.943 -16.2132 74.1012
CA -4.82161 -17.4777 57.0085
CA -3.60313 -13.4179 11.5336
CA -6.01261 -23.9316 17.7771
CA -9.50678 -36.6376 64.1826
CA 0.646078 -26.8323 86.2244
CA 4.47355 -26.2855 27.5978
CA -7.4098 -36.4059 76.5976
CA -5.32181 -31.3947 89.0762
CA 13.245 -27.9171 45.3143
CA -21.0089 -21.0005 60.3761
CA -9.57543 -8.84484 42.4013
CA -35.9025 -27.9284 54.8488
CA -5.7638 -20.6419 87.2066
CA -7.0623 -8.20153 60.6562
CA -25.8327 -33.0817 47.7371
CA 1.71457 -16.641 30.9137
CA -7.47729 -51.0896 57.0214
CA -20.7563 -25.776 37.2994
CA -13.6902 -40.5551 50.0671
CA -14.9643 -46.3361 75.1209
CA 4.01982 -18.2981 56.4201
CA -18.0508 -17.642 70.029
CA -8.87666 -46.4094 79.1184
CA -29.604 -33.5497 56.2891
CA -0.820521 -18.3384 24.4812
CA -10.6276 -13.822 42.102
CA -26.8212 -40.5455 70.9391
CA -17.4434 -38.9311 56.3907
CA 1.0977 -16.1155 65.8183
CA -30.7587 -20.9098 45.8912
CA -5.52261 -35.2424 79.0249
CA -23.13 -27.146 85.4255
CA -16.9279 -44.2499 73.2898
CA 2.48427 -27.8201 28.1791
CA -14.5479 -29.6089 89.252
CA 6.08621 -34.1554 49.6069
CA -6.69795 -22.9249 34.0529
CA -21.945 -32.5911 42.2186
CA -14.1168 -29.8278 85.9507
CA -31.0141 -12.1787 69.605
CA -0.133422 -14.3854 5.9906
CA -7.67392 -39.5401 60.6865
CA -29.7322 -15.8508 60.9503
CA -7.29609 -27.6333 42.1848
CA -29.1114 -11.4157 71.5725
CA -7.05075 -19.5801 66.5612
CA -23.9037 -25.6449 77.5021
CA -6.96039 -21.2031 39.5777
CA -16.6063 -31.7168 45.2808
CA -6.81997 -35.0122 87.868
CA -21.7374 -28.8427 28.7004
CA -13.1776 -13.5661 4.20948
CA -22.3581 -27.88 31.1624
CA -0.384098 -23.208 89.9274
CA -25.1978 -22.7602 44.685
CA -26.1111 -29.7509 85.9571
CA -15.8837 -14.7256 44.0219
CA -6.03238 -18.3243 63.7755
CA -8.29727 -46.1847 55.7408
CA -3.12877 -13.2293 58.3498
CA 12.497 -13.6593 68.5839
CA 2.28568 -22.5791 59.0469
CA -3.12523 -28.4004 54.0638
CA -20.0952 -27.3102 75.4904
CA -29.9435 -21.2944 58.9507
CA -13.882 -24.0089 76.3088
CA -17.3395 -33.5729 59.4699
CA -11.6261 -31.8137 57.991
CA -4.62026 -13.8811 37.0474
CA -10.7073 -19.6185 63.1162
CA -8.42099 -13.4006 59.1014
CA -7.21978 -46.8218 65.4388
CA -22.9266 -2.1089 49.6845
CA 3.18716 -14.3752 60.5156
CA -30.5273 -31.5447 63.3372
CA -15.9702 -18.9793 34.4482
CA -28.5721 -27.5397 70.1249
CA -6.72906 -24.586 48.8875
CA 4.98707 -16.8089 68.0435
CA -12.3129 -8.43975 61.9436
CA -17.2214 -32.7236 89.9777
CA -20.3446 -10.6762 52.407
CA -24.9429 -6.59949 47.9257
CA -37.4163 -33.133 56.7079
CA -14.4607 -11.5987 63.411
CA -32.4843 -16.8906 72.9333
CA -15.5513 -13.4824 37.6598
CA -27.854 -32.6308 48.839
CA -10.784 -22.0303 63.9367
CA -7.30846 -20.6604 58.1047
CA -36.0026 -30.1352 49.898
CA -5.41246 -22.5415 74.218
CA -29.8927 -35.4975 48.7974
CA -7.10732 -32.9306 43.5101
CA -20.7541 -38.752 69.8111
CA -27.3056 -31.3538 47.2124
CA -12.4408 -19.5993 35.7433
CA 4.07705 -23.6983 55.1889
CA -8.18168 -19.6644 45.4707
CA -32.507 -30.389 72.6701
CA -3.93719 -24.5057 65.1272
CA -10.4377 -29.752 39.2437
CA -9.04452 -14.809 33.064
CA -9.54686 -5.59249 46.5824
CA -36.8807 -16.608 60.1011
CA -12.9755 -29.6746 68.3084
CA -5.29427 -37.7596 77.4343
CA -4.29896 -12.0129 52.4549
CA -30.2445 -12.435 59.0789
CA -6.62783 -46.8948 60.1559
CA -24.2669 -32.5261 40.4002
CA -7.75794 -5.52981 57.2179
CA -6.16296 -24.965 70.6342
CA -11.056 -15.6901 71.1664
CA -9.61075 -39.2731 47.4167
CA -2.01728 -11.7785 64.4141
CA -24.2542 -42.7299 55.028
CA -28.7795 -31.6589 74.2728
CA -10.9233 -46.1226 74.428
CA -6.46225 -28.2796 84.7934
CA -21.5085 -3.7849 52.4828
CA -21.5568 -30.936 40.5602
CA -24.0305 -38.9093 60.2882
CA 5.2448 -27.8297 90.8824
CA -22.267 -30.48 59.3865
CA -35.6 -33.9367 69.1946
CA 7.38309 -32.2472 54.077
CA -24.9752 -34.2799 37.1064
CA -3.1647 -23.4661 88.3229
CA -9.89667 -45.2051 68.2161
CA -20.9074 -28.8299 79.3373
CA -28.7737 -25.7976 76.847
CA -28.2955 -29.1232 76.4462
CA -3.33814 -10.0033 53.3805
CA -16.8554 -16.6692 67.3231
CA 5.34132 -14.3739 56.7778
CA -25.6914 -3.31328 50.2439
CA 0.669099 -22.8547 64.6928
CA -9.34402 -32.3867 40.8984
CA -8.21874 -22.9288 48.1539
CA -10.3727 -10.1448 43.5136
CA -3.88666 -9.7746 65.6341
CA 7.72281 -26.4566 63.6608
CA -37.0335 -27.0622 51.5402
CA -23.2126 -10.3883 66.7196
CA -14.3324 -20.2663 55.436
CA -16.4128 -6.91176 61.6496
CA -31.3755 -9.54744 71.5903
CA -21.9852 -40.8946 52.1691
CA 7.71587 -23.5175 51.2471
CA -19.8789 -21.1146 35.4963
CA 3.23937 -26.4187 48.4226
CA -31.7258 -13.488 55.5019
CA -25.9402 -29.312 50.1859
CA -15.7578 -22.02 61.5612
CA -14.4468 -41.85 46.7353
CA -36.2796 -12.8023 63.6214
CA 2.009 -21.6975 32.7039
CA -30.711 -23.0573 62.6846
CA -12.0553 -44.4887 72.3426
CA -11.5147 -43.9348 74.8951
CA 1.52655 -9.57537 54.2611
CA -5.73536 -12.0415 73.5736
CA -5.75106 -14.6325 6.82769
CA -10.7325 -50.2584 65.0056
CA -23.2616 -30.5252 39.7165
CA -20.6914 -3.21446 50.0368
CA -24.1584 -34.4869 48.1615
CA -23.281 -19.6868 68.224
CA -28.4203 -31.4319 59.5881
CA -10.0323 -46.0771 54.5563
CA -28.1177 -23.4794 58.3034
CA -1.77497 -27.5479 81.1627
CA -12.3877 -43.8183 46.6082
CA -11.7874 -14.9139 27.8434
CA -26.4983 -17.6977 87.8972
CA -11.5953 -16.0684 42.6348
CA -9.02504 -37.2523 35.3795
CA -23.6133 -8.6599 63.9995
CA -14.6258 -45.0554 79.0341
CA -19.7114 -5.71323 39.0532
CA -38.0376 -25.2296 57.2452
CA -0.323316 -25.1931 58.5247
CA -5.70758 -35.0738 42.7546
CA -13.4364 -23.9633 71.7969
CA -5.0099 -22.8341 38.1153
CA -27.7358 -9.22106 68.2835
CA -7.42713 -32.6974 85.0785
CA -8.10413 -38.1925 39.2464
CA -24.8454 -34.5765 45.9994
CA -11.6396 -40.303 79.5555
CA -24.389 -41.1288 61.0147
CA -7.31548 -22.7646 68.0009
CA -6.41577 -6.67309 42.7651
CA -7.63737 -24.5056 51.6062
CA 2.01946 -28.3688 54.9501
CA -4.30283 -22.1435 46.3874
CA -27.4544 -19.825 53.6467
CA -17.382 -29.7602 85.3932
CA -34.3854 -11.4022 59.8419
CA -8.59172 -30.1736 60.4666
CA -25.7891 -24.4449 46.4036
CA -1.17303 -23.4857 86.7834
CA -24.3876 -8.82941 49.0063
CA -32.0899 -17.9261 74.7626
CA -20.4265 -24.896 47.4131
CA -14.0845 -45.7243 76.6816
CA -7.7409 -25.1492 39.0128
CA -29.1019 -13.6349 48.2193
CA -10.2609 -20.2129 76.2556
CA -5.44529 -10.2659 11.886
CA -13.8535 -25.3165 61.2229
CA -9.72797 -36.1303 39.818
CA -20.3233 -10.1321 33.7442
CA -1.25826 -22.1241 27.1956
CA -10.7822 -36.2916 48.2415
CA -9.06987 -25.0485 69.1299
CA -0.0260089 -22.0711 32.6202
CA -7.91438 -34.1619 47.3321
CA -5.64832 -38.8759 65.876
CA -7.85606 -15.9139 56.5097
CA -6.7409 -49.5191 66.5983
CA -35.6219 -18.1756 61.851
CA -15.3525 -38.1966 44.9157
CA -26.5202 -41.0958 72.9061
CA -38.7171 -22.4498 46.7246
CA -18.3125 -28.7053 45.8171
CA -35.6856 -38.5861 70.5361
CA -17.3139 -19.5677 64.7561
CA -3.24039 -24.623 16.5378
CA -23.9521 -20.9287 70.8417
CA -28.7678 -34.7185 46.26
CA -8.9735 -7.92681 61.0295
CA -24.3776 -38.9571 70.9802
CA -29.6096 -18.0154 51.1981
CA -29.0123 -38.6388 64.4769
CA -15.2723 -29.4946 72.6874
CA -9.29701 -6.83716 55.7025
CA -10.0462 -25.3283 38.8478
CA -4.55864 -32.33 77.4663
CA -15.2264 -19.4887 44.1664
CA -0.363788 -19.967 36.4565
CA 4.33122 -14.3228 32.1597
CA 9.56553 -25.5425 55.6429
CA -7.54949 -27.4491 45.6148
CA -8.46955 -50.0514 67.2717
CA 2.20195 -24.6927 55.0507
CA -20.5084 -14.0018 53.9127
CA -10.9981 -28.0301 73.1814
CA -4.18741 -23.0932 32.3728
CA -15.7342 -43.7749 44.951
CA -16.0982 -24.2408 43.1711
CA -30.2525 -13.7993 75.7336
CA -9.06089 -25.7433 78.8436
CA -13.2141 -28.0922 43.0791
CA -27.3623 -20.6224 65.9604
CA -6.70888 -30.4463 85.1021
CA -8.25587 -23.6713 76.0082
CA -9.62213 -11.1928 8.34596
CA -17.1714 -26.7797 73.9845
CA -10.2301 -19.4592 54.4764
CA -7.18633 -39.2312 47.7367
CA -3.62475 -22.4201 39.9562
CA 10.4357 -29.875 46.3083
CA -26.7667 -7.82094 62.5
CA 5.00423 -32.2955 65.0775
CA -30.333 -24.2764 64.8588
CA -2.6647 -11.0836 10.1796
CA -30.3512 -14.5677 50.4818
CA 7.93294 -29.4972 46.6476
CA -17.7152 -25.8668 31.8507
CA -9.03408 -22.198 73.0901
CA -12.1394 -16.225 31.3943
