489

CA -37.6836 -11.9103 43.4646
CA -8.87101 -10.8197 51.8699
CA -23.1458 -35.975 61.0364
CA -7.23225 -29.4563 79.2304
CA -13.4917 -12.8816 44.7366
CA -1.35064 -13.4032 32.2155
CA -26.0757 -21.9664 42.5917
CA -5.39279 -12.7209 4.12995
CA 0.670025 -18.1389 34.0345
CA -27.3114 -4.50042 63.6985
CA -24.534 -20.5712 85.2606
CA -15.3053 -47.9332 82.7209
CA -7.10368 -25.1869 63.1267
CA -32.9339 -17.0296 61.5856
CA -15.2557 -49.4885 79.8469
CA 2.97033 -13.8336 65.686
CA -37.3646 -38.726 53.4051
CA -10.6784 -43.9566 80.9735
CA -19.2299 -23.3221 59.7275
CA -9.40658 -34.841 55.266
CA -8.05153 -23.4544 86.7764
CA -2.74297 -36.6709 38.0393
CA 2.97309 -17.5187 48.4888
CA -5.64516 -25.5917 25.5975
CA -7.43376 -33.4611 67.6158
CA -8.887 -37.3347 73.3945
CA -33.1052 -39.3422 53.181
CA -8.49706 -28.3401 57.9793
CA -10.9504 -21.3296 70.3531
CA -2.77801 -24.6071 23.2782
CA -41.3786 -34.5307 51.5205
CA -13.3868 -39.7182 56.9943
CA -27.6795 -18.3702 58.4959
CA -19.8685 -10.8418 67.6987
CA -12.2137 -13.6619 67.8765
CA -12.616 -49.532 59.873
CA -34.0323 -32.882 51.7857
CA -30.0017 -26.3105 63.2036
CA -10.9142 -21.7272 52.5092
CA -6.68941 -8.97016 8.50355
CA -8.68446 -25.5422 61.6798
CA -9.03815 -19.2088 50.9835
CA -9.93513 -32.1294 47.2276
CA 3.33636 -15.779 51.2279
CA 6.52251 -12.1788 35.224
CA -9.41314 -30.5823 67.1748
CA -6.75171 -26.522 80.179
CA -8.85215 -44.0881 79.4155
CA -6.55393 -10.5421 46.7845
CA -19.6809 -37.1009 43.0076
CA -16.7764 -29.081 56.1936
CA -23.0611 -24.2617 76.6067
CA -21.8096 -25.3716 35.2247
CA -25.7685 -7.94886 53.4101
CA -8.69274 -13.4564 35.6897
CA -26.4469 -33.2639 72.0947
CA -16.7334 -13.286 39.5093
CA -2.58232 -16.7793 38.0761
CA -17.4931 -39.0108 41.7944
CA -33.6781 -32.5974 39.8273
CA -14.4538 -23.321 34.0874
CA -26.5649 -23.5613 66.7211
CA -18.2537 -10.6597 62.534
CA -13.2244 -45.4827 79.2046
CA -21.4021 -31.9955 57.7745
CA -23.138 -44.2969 75.0251
CA -9.08797 -36.4723 65.6329
CA -20.6621 -46.4451 49.3957
CA -19.0416 -11.7886 41.1553
CA -4.39072 -10.7737 15.5571
CA -34.386 -28.5899 51.2564
CA -9.95435 -26.4463 77.8895
CA -26.4697 -30.1916 75.0345
CA -17.5973 -42.3359 75.3563
CA -13.9008 -18.2731 64.8265
CA -33.6524 -40.3676 74.5306
CA -5.92842 -32.1048 42.9512
CA -19.3568 -24.7176 44.1687
CA -30.2368 -14.4414 56.4537
CA -2.58066 -30.5974 41.0161
CA -12.2709 -20.7024 40.0095
CA -5.13896 -35.406 81.0575
CA -13.4315 -14.1712 64.8238
CA -5.93764 -7.13419 8.64455
CA -27.7478 -43.556 69.4613
CA -8.08281 -42.107 80.8517
CA -27.1861 -25.4836 77.0411
CA -6.18155 -24.5136 44.5082
CA -13.728 -22.7009 42.1778
CA -19.5092 -26.6768 50.5472
CA -9.90099 -7.65454 67.981
CA -27.35 -19.6024 65.2893
CA -14.5596 -39.0012 73.1649
CA -18.458 -4.05002 54.7154
CA -9.6661 -34.7971 59.4467
CA -28.7625 -15.109 61.3688
CA -9.04614 -10.1062 4.51569
CA -33.6886 -33.1241 74.3682
CA -0.333457 -25.2911 54.4683
CA -22.1546 -37.6039 59.5667
CA -35.947 -27.308 56.0485
CA -26.1123 -16.6857 44.6245
CA -23.5399 -43.4769 57.4738
CA -7.6125 -39.8749 65.497
CA -13.5056 -11.0363 35.0896
CA -12.9105 -31.2787 54.4119
CA -15.0603 -37.4125 54.2282
CA -22.8615 -26.0087 69.0147
CA -11.6433 -16.6247 62.5773
CA -27.3105 -22.0359 48.0521
CA -22.0469 -25.9108 78.7612
CA -4.77772 -10.2468 56.0279
CA -9.43081 -35.2645 43.8676
CA -6.49895 -46.3107 74.0855
CA -36.9059 -37.1509 71.2052
CA -39.7893 -29.5907 47.1199
CA -0.0333716 -13.9182 66.2431
CA -4.86597 -18.0154 35.3854
CA -6.58764 -22.3547 47.5188
CA -9.47073 -11.3321 6.33572
CA 1.73032 -27.8684 51.9174
CA -9.08506 -26.851 40.1767
CA -22.845 -33.2493 42.3302
CA -21.4534 -46.3998 73.583
CA -17.4301 -21.0371 36.4733
CA -13.1954 -19.3903 35.436
CA 4.6777 -27.0264 60.7288
CA -11.9434 -38.9085 42.2032
CA -4.93378 -11.6271 2.58096
CA -8.74001 -23.0438 63.073
CA -15.9732 -24.7947 56.5834
CA -18.8763 -9.01027 39.6776
CA -18.8667 -23.1097 76.1248
CA -8.06302 -52.3234 62.5838
CA 7.44193 -34.2737 62.3716
CA -18.5863 -19.895 62.0128
CA 4.87546 -14.4764 36.0228
CA -1.407 -31.8807 47.2016
CA -31.7949 -19.5336 67.9133
CA -17.4349 -24.0972 66.1186
CA -37.5396 -46.759 42.2826
CA -8.18124 -36.8168 40.0614
CA -7.04372 -49.9679 53.9041
CA -19.038 -22.75 34.8834
CA -7.34976 -32.4577 55.9004
CA -28.8438 -27.0453 77.0622
CA -4.86902 -38.2997 69.1614
CA -0.719713 -19.5782 15.2223
CA -16.1091 -19.8071 54.1009
CA -8.60335 -35.1666 78.8689
CA -3.61845 -13.9205 15.5469
CA -15.5717 -8.3549 38.6472
CA -24.7524 -12.3635 53.4689
CA -32.6944 -21.5257 51.3865
CA -10.2219 -46.2194 78.7777
CA -0.48462 -22.5353 18.9526
CA -25.1821 -18.7231 42.2709
CA -14.3586 -26.1877 45.1982
CA -27.7289 -32.4241 32.5595
CA -2.76755 -18.2457 10.1355
CA -9.33116 -15.728 61.8747
CA -9.20363 -48.6143 65.7455
CA -1.93935 -33.5498 46.5766
CA -19.8685 -45.8682 74.9914
CA -14.1274 -30.1582 88.1061
CA -5.09696 -21.6941 41.6909
CA -7.5944 -23.7305 66.4555
CA -9.45085 -6.91176 44.1198
CA -1.08547 -23.5551 60.4761
CA -8.78155 -42.0666 50.2843
CA -13.4718 -11.341 39.9743
CA -17.1884 -22.4611 49.4873
CA 3.45065 -18.8523 43.3244
CA -20.0553 -40.0478 75.4999
CA -22.3007 -30.8673 53.4585
CA 3.02604 -10.9313 55.2662
CA -10.8558 -49.8529 50.37
CA 3.16551 -14.5192 47.4289
CA -14.8346 -28.0607 87.7629
CA -25.5814 -34.0461 69.4879
CA -1.73444 -16.9378 48.7763
CA -21.2129 -43.3039 53.2207
CA -13.428 -47.0018 69.679
CA -3.09642 -16.5626 5.8332
CA 5.42582 -28.2352 51.27
CA -6.93585 -34.5633 57.2883
CA -16.7816 -9.4759 40.7988
CA -3.63655 -39.3848 79.0678
CA -8.84102 -44.9293 45.1755
CA -32.3511 -20.771 64.1381
CA -18.1381 -16.2098 33.7607
CA -28.7918 -23.4876 59.2604
CA -37.1075 -46.572 45.4349
CA -10.4726 -9.21063 61.0189
CA -5.1249 -40.7325 39.0917
CA -36.8721 -48.2137 47.7974
CA -4.21759 -34.1278 60.0302
CA -26.977 -19.5942 63.1988
CA -24.3852 -17.0903 66.9718
CA -36.477 -29.2533 77.0574
CA -40.8714 -15.156 42.8498
CA 7.54628 -38.6849 64.8834
CA -25.0431 -24.2093 82.8803
CA -1.4581 -16.7969 28.6828
CA -36.7532 -20.4449 42.7508
CA -26.7388 -16.6905 71.3861
CA -30.3652 -27.4089 42.9293
CA -21.3329 -32.0767 49.023
CA -6.10741 -38.3678 47.3175
CA -10.2622 -15.2352 3.62007
CA -29.4772 -18.2493 70.1856
CA -22.5835 -23.984 64.4014
CA -9.81123 -10.1755 66.178
CA -34.4368 -32.2064 56.1628
CA -36.1081 -19.2289 48.8246
CA -24.4768 -34.043 41.9383
CA -7.73838 -34.6326 34.7285
CA -7.89106 -8.96807 48.5302
CA -6.01261 -23.9316 17.7771
CA -28.605 -28.3751 80.4884
CA -25.9239 -45.5621 54.4914
CA -19.9395 -19.3064 67.351
CA -0.107988 -41.8313 34.915
CA -7.14872 -48.3381 58.9131
CA -14.5035 -43.565 45.2342
CA -9.51353 -15.2818 43.5615
CA -30.1446 -16.0611 42.3142
CA 3.87046 -34.2084 52.5468
CA -37.3269 -42.8944 45.8258
CA -12.3489 -40.0373 51.3819
CA -25.8327 -33.0817 47.7371
CA -18.8534 -34.8715 42.4373
CA -33.1182 -17.0181 50.9398
CA -12.3025 -7.54609 4.29666
CA -22.1319 -41.0053 80.3831
CA -14.9643 -46.3361 75.1209
CA 4.01982 -18.2981 56.4201
CA -28.8967 -15.6247 57.5498
CA 6.74946 -23.0539 50.2505
CA -27.9432 -35.9753 61.9896
CA -5.67617 -36.8207 51.4693
CA -10.7821 -8.40229 57.3231
CA -19.4479 -41.9935 44.3683
CA -25.4183 -12.5312 50.4703
CA -19.5524 -9.45561 55.9733
CA -28.1727 -42.2424 50.9944
CA -6.73941 -40.1409 78.7717
CA -23.13 -27.146 85.4255
CA -1.12164 -17.5043 68.444
CA -4.11837 -45.752 78.6947
CA -18.3003 -27.0317 48.5748
CA -4.37203 -22.8348 71.0767
CA -14.3629 -26.7122 83.0643
CA -25.7456 -15.958 48.6479
CA -30.9021 -32.5564 29.9316
CA -5.86438 -32.9856 48.3229
CA -10.1525 -12.9292 5.63327
CA -27.9875 -29.6588 33.8055
CA -25.9721 -48.842 53.9562
CA -28.9499 -18.3595 56.5496
CA -13.1152 -43.0264 56.2117
CA -35.7133 -13.3373 49.8128
CA -36.4058 -42.6158 71.606
CA 5.70216 -24.2502 65.7764
CA -22.8999 -39.4873 58.7168
CA -16.7453 -23.8416 45.5872
CA -34.7349 -20.8135 69.6787
CA -2.53267 -32.3144 54.1637
CA -7.71524 -3.60022 42.2647
CA -33.3828 -36.8387 66.3803
CA -30.7559 -34.6437 69.6278
CA 1.72749 -10.3871 56.8225
CA -23.4673 -26.4019 39.1599
CA -31.1483 -23.2929 53.249
CA -0.128312 -7.17464 59.6146
CA -9.25962 -33.9674 46.4718
CA -33.982 -14.1318 47.0858
CA -3.78297 -20.9648 27.8731
CA -19.7241 -30.9633 53.6475
CA -35.56 -45.8089 48.5706
CA -12.9959 -10.4894 52.8118
CA -24.622 -27.9544 66.9947
CA -18.3425 -19.4375 57.4177
CA -36.0885 -34.7081 53.2749
CA -2.2333 -36.099 47.1887
CA -15.2182 -31.5742 39.027
CA -18.225 -43.9045 48.6686
CA -19.6685 -26.3247 82.8947
CA -8.87325 -38.5735 37.612
CA -14.0413 -17.3837 61.0663
CA -7.80022 -12.8821 46.4189
CA -23.5502 -9.79683 60.3637
CA -10.2671 -27.9044 65.4655
CA -33.262 -27.5251 61.9025
CA 3.06288 -9.61264 62.1749
CA -35.1747 -12.5018 39.7854
CA -9.78471 -22.2644 85.3942
CA -25.3678 -33.6946 66.5461
CA -22.5786 -22.3303 44.6712
CA 0.406466 -21.1518 24.4442
CA -4.8935 -16.9665 36.9887
CA -14.8639 -17.9435 37.9798
CA -10.4343 -23.3674 83.2884
CA -5.39092 -14.6796 34.3748
CA -38.6983 -38.1695 50.0738
CA 5.35428 -25.629 62.2504
CA 6.91472 -31.7001 63.5051
CA -10.884 -24.3982 90.5701
CA 2.32882 -16.628 39.7112
CA -3.2093 -24.9745 53.2623
CA -18.1982 -20.6919 70.1948
CA -15.7293 -13.8254 63.3893
CA -42.4971 -26.1353 45.8118
CA 6.71954 -27.8308 61.5144
CA -21.2843 -14.1624 40.6369
CA 2.33924 -15.2347 64.242
CA -9.60056 -40.0148 73.8
CA -34.1627 -29.8339 47.9374
CA -13.8654 -14.5943 43.5515
CA -16.5133 -16.591 39.5531
CA -13.0576 -29.476 54.1862
CA -20.3835 -41.4975 61.5219
CA -30.571 -30.0153 34.3836
CA -9.56092 -47.6867 53.1896
CA -19.1886 -50.0101 81.7494
CA -28.5513 -16.8572 59.0982
CA -36.6501 -32.5614 74.8075
CA -23.2796 -26.2403 74.8505
CA -6.26674 -19.5601 51.8014
CA -13.5358 -33.7113 58.6166
CA -5.28796 -28.9168 40.1526
CA -25.7557 -32.3418 68.2902
CA -4.43032 -11.8765 46.3574
CA -41.0314 -36.8068 47.9867
CA -36.9363 -42.2858 48.257
CA -4.26257 -13.228 56.0861
CA -3.73353 -34.6742 56.6133
CA -3.10651 -34.2625 44.0776
CA -34.3351 -33.268 53.6519
CA -1.05301 -31.9841 43.8511
CA 0.932751 -23.1899 55.444
CA -32.6897 -29.0177 43.2267
CA -37.8814 -29.7189 55.9359
CA -9.58068 -52.6811 57.422
CA -3.1647 -23.4661 88.3229
CA -34.8008 -41.4102 49.0172
CA -33.3771 -23.3953 49.4776
CA 2.47034 -13.8228 51.1422
CA -22.7002 -41.8949 71.8384
CA -0.644107 -38.3017 42.4397
CA -35.5121 -24.3585 50.9919
CA -2.11195 -25.1903 69.76
CA -27.2955 -24.2235 62.1081
CA 0.669099 -22.8547 64.6928
CA -7.01959 -35.1729 82.3808
CA -12.5946 -11.658 56.1523
CA 4.47839 -19.0516 54.032
CA -29.878 -40.4722 67.2116
CA -20.9893 -12.1624 54.5926
CA 4.26669 -19.3509 48.1261
CA -34.22 -50.3824 48.3095
CA -18.6119 -4.97816 35.0653
CA 2.26172 -16.3143 45.5244
CA -12.6667 -46.3156 47.4587
CA -21.9852 -40.8946 52.1691
CA -10.2136 -26.5903 91.5132
CA -16.2219 -32.8562 37.6222
CA -39.1453 -35.9705 76.4234
CA -19.6996 -13.7197 68.8385
CA -22.5247 -48.2182 54.1733
CA -6.12754 -32.0957 67.4571
CA -34.3638 -25.5366 61.387
CA -8.80323 -11.8683 56.5725
CA -22.9149 -11.393 50.604
CA -12.2669 -21.0854 50.9132
CA -14.5758 -26.366 89.6863
CA -27.6816 -26.0582 73.2179
CA 6.81895 -25.8171 50.8588
CA -1.73042 -26.7701 53.6473
CA -5.75106 -14.6325 6.82769
CA -9.23967 -48.0608 48.6214
CA -23.118 -44.3113 49.4282
CA -17.2195 -30.2668 36.8935
CA -10.889 -14.3482 61.3826
CA -8.96251 -49.3562 54.3335
CA -23.9308 -25.8376 64.2139
CA -32.8157 -40.5207 69.4634
CA -7.54133 -12.0378 51.7739
CA 0.18595 -20.653 44.5107
CA -16.2825 -29.4169 58.524
CA -19.085 -18.2141 31.0259
CA -26.4983 -17.6977 87.8972
CA -27.6677 -45.7325 73.6161
CA -10.3175 -18.0362 69.9287
CA -23.6133 -8.6599 63.9995
CA -1.80053 -23.4932 47.2979
CA -5.42625 -27.5684 42.2343
CA -29.8008 -28.9752 60.9121
CA -0.323316 -25.1931 58.5247
CA -13.6381 -26.1813 91.6484
CA -5.70178 -30.3273 43.2931
CA -13.5829 -7.76197 57.5052
CA -35.4047 -24.0547 64.9723
CA -6.65066 -49.0645 67.005
CA -25.3037 -32.7108 44.7957
CA -14.9764 -20.4908 61.2293
CA -28.6378 -20.9373 72.5843
CA -35.4553 -31.0625 73.019
CA -7.31548 -22.7646 68.0009
CA -19.3074 -21.0026 53.157
CA -12.6698 -31.1158 88.8992
CA -40.0817 -25.1552 42.9065
CA -20.9368 -42.7361 72.8951
CA -27.9554 -33.2791 65.9446
CA -24.3658 -41.1187 73.2191
CA -34.3854 -11.4022 59.8419
CA -29.2849 -17.788 75.1279
CA -11.7361 -25.4864 82.1408
CA -18.8317 -13.7471 59.4522
CA -13.0791 -10.8256 4.16523
CA -9.92117 -27.2762 82.3094
CA -37.3572 -40.678 50.2092
CA -31.6633 -13.0725 57.5023
CA -15.2826 -42.793 52.0141
CA -20.8652 -21.124 32.8506
CA -10.2609 -20.2129 76.2556
CA -5.44529 -10.2659 11.886
CA -19.1252 -15.198 53.1993
CA -1.27048 -26.2026 20.9566
CA -5.69038 -36.4072 58.2519
CA -0.341023 -36.1891 77.1168
CA -4.64953 -27.367 59.559
CA -9.23159 -38.2909 32.0409
CA -27.4327 -34.3491 67.6905
CA -25.5982 -31.4328 36.1133
CA -5.64832 -38.8759 65.876
CA -10.8969 -23.0494 48.6995
CA -22.8596 -33.9728 58.5154
CA -29.3806 -16.4086 71.1371
CA -17.9097 -46.2001 48.8467
CA -31.7466 -33.7067 77.0636
CA -38.7171 -22.4498 46.7246
CA -3.59908 -34.6482 64.4138
CA -15.099 -29.014 40.9308
CA 0.763796 -40.2134 39.3835
CA -3.24039 -24.623 16.5378
CA -6.60568 -10.3831 39.8927
CA -28.7678 -34.7185 46.26
CA -6.60822 -41.6613 39.7424
CA -36.4186 -16.468 43.613
CA -8.3091 -44.6115 48.463
CA -22.1075 -42.1866 49.3382
CA -9.94482 -25.144 53.7456
CA -30.3758 -31.1144 45.0737
CA -31.3168 -27.9461 60.3409
CA -5.4822 -11.0617 48.2074
CA -6.17649 -42.1868 49.3854
CA -21.7588 -30.3887 55.768
CA -29.8977 -40.2682 71.1326
CA -33.3981 -33.1369 45.5889
CA 4.37307 -30.1555 50.4163
CA -22.7502 -39.8816 75.5666
CA -24.4094 -22.5599 43.4995
CA -6.52321 -17.0464 34.8382
CA -24.2344 -15.2831 61.9029
CA -26.1864 -7.44609 62.6792
CA -26.4551 -29.8434 35.6563
CA -12.7742 -25.6277 86.9141
CA -5.83489 -25.8729 65.8363
CA -5.92632 -33.3682 84.0098
CA -6.81065 -42.8501 73.1638
CA -33.6805 -14.7543 44.0069
CA -10.1705 -38.949 47.5388
CA -26.5371 -25.6482 39.1026
CA -4.63403 -11.7765 40.4445
CA -38.3181 -34.9709 75.0224
CA -27.5474 -9.86294 51.862
CA -25.3073 -27.9078 34.8917
CA -35.193 -42.0212 69.6239
CA -4.13417 -39.2455 38.3771
CA -22.4926 -24.2168 30.8002
CA -31.4989 -32.6037 37.2081
CA -3.16564 -43.3271 76.5005
CA -9.39936 -22.6853 75.6243
CA -13.53 -21.816 74.7149
CA -0.188344 -26.5676 50.5417
CA -34.1772 -21.7224 47.636
CA -12.6272 -19.0704 71.1072
CA -24.1016 -35.0094 57.3554
