489

CA -9.77402 -38.4604 58.7294
CA -8.87101 -10.8197 51.8699
CA -4.52775 -18.9086 71.1586
CA -28.5337 -37.0398 47.5916
CA -20.7503 -43.5274 51.3909
CA -35.7191 -39.0725 70.6409
CA -27.463 -7.96042 50.8072
CA -5.39279 -12.7209 4.12995
CA -11.737 -43.3726 72.1317
CA -27.3114 -4.50042 63.6985
CA -24.534 -20.5712 85.2606
CA -15.3053 -47.9332 82.7209
CA -31.8973 -44.8102 53.558
CA -32.9339 -17.0296 61.5856
CA -35.7978 -9.82219 38.5443
CA -0.883199 -35.8448 63.4317
CA -37.3646 -38.726 53.4051
CA -1.94256 -35.7914 77.9278
CA -7.91082 -13.3483 61.731
CA -26.7181 -31.3609 44.6273
CA -3.31263 -48.0477 68.7996
CA -2.74297 -36.6709 38.0393
CA 2.97309 -17.5187 48.4888
CA -33.1724 -20.3107 53.3281
CA -7.43376 -33.4611 67.6158
CA -8.887 -37.3347 73.3945
CA -33.1052 -39.3422 53.181
CA 4.67259 -35.0398 58.2777
CA -12.6846 -9.87481 5.96236
CA -2.77801 -24.6071 23.2782
CA -41.3786 -34.5307 51.5205
CA -24.3657 -25.9878 37.9863
CA 1.37368 -36.2993 45.5002
CA -33.8421 -33.9219 43.5988
CA -1.72047 -20.5646 30.9128
CA -18.0046 -23.9331 36.214
CA -11.4308 -50.1304 56.3462
CA -27.9337 -19.9384 71.2422
CA -10.9142 -21.7272 52.5092
CA -6.99911 -17.9673 10.0478
CA -3.98412 -25.8053 64.2264
CA -9.03815 -19.2088 50.9835
CA -23.8663 -25.0639 41.5444
CA 3.33636 -15.779 51.2279
CA -5.31183 -52.0297 61.5417
CA -23.731 -21.0596 78.2506
CA -2.09086 -46.0413 81.1368
CA -8.85215 -44.0881 79.4155
CA -34.6804 -25.0536 54.7016
CA -31.4936 -11.7121 65.2341
CA -14.6695 -10.108 44.9966
CA -20.1525 -27.4715 54.5212
CA -21.8096 -25.3716 35.2247
CA -20.9036 -46.1898 51.0011
CA -8.69274 -13.4564 35.6897
CA -20.6943 -34.0999 40.3435
CA -25.0208 -15.4456 70.2076
CA -2.58232 -16.7793 38.0761
CA -17.4931 -39.0108 41.7944
CA -33.6781 -32.5974 39.8273
CA -14.4538 -23.321 34.0874
CA -37.5002 -28.5289 58.1048
CA -28.6724 -22.0091 49.8631
CA -13.2244 -45.4827 79.2046
CA -21.4021 -31.9955 57.7745
CA -23.4234 -24.7682 50.5049
CA -9.32869 -7.16626 57.9586
CA -28.5814 -39.8042 66.9966
CA -19.0416 -11.7886 41.1553
CA -4.39072 -10.7737 15.5571
CA -34.386 -28.5899 51.2564
CA -19.4665 -37.665 60.6071
CA -19.4381 -11.5843 61.7388
CA -33.8817 -41.5197 66.1024
CA -13.9008 -18.2731 64.8265
CA -13.4359 -36.3129 55.3265
CA -40.691 -53.2651 47.6391
CA -19.3568 -24.7176 44.1687
CA 1.53867 -31.7284 48.3207
CA -2.58066 -30.5974 41.0161
CA -23.745 -39.0721 41.3846
CA -11.1073 -49.1513 58.0585
CA -12.6492 -17.0247 49.4478
CA -3.96302 -8.49918 8.87347
CA -8.32213 -30.0184 49.6889
CA -12.9691 -50.375 77.8605
CA -27.1861 -25.4836 77.0411
CA -6.18155 -24.5136 44.5082
CA -28.226 -27.5163 56.9179
CA -11.6748 -40.0857 84.9526
CA -18.2486 -38.02 39.0357
CA -31.747 -33.7561 42.7977
CA -23.1542 -37.6062 42.3523
CA -18.458 -4.05002 54.7154
CA -35.7388 -50.3406 50.2862
CA -9.22665 -11.1656 63.8633
CA -9.04614 -10.1062 4.51569
CA -33.6886 -33.1241 74.3682
CA -15.7317 -33.917 62.9998
CA -18.9044 -19.2778 35.5852
CA -19.3074 -17.5726 71.2171
CA -13.7176 -33.7129 53.0224
CA -23.5399 -43.4769 57.4738
CA -7.6125 -39.8749 65.497
CA -13.5056 -11.0363 35.0896
CA -30.471 -27.3954 75.9614
CA -15.0603 -37.4125 54.2282
CA -27.6923 -14.3042 70.3618
CA -13.6557 -49.2945 76.3529
CA -27.3105 -22.0359 48.0521
CA -22.0944 -23.843 85.8582
CA -4.77772 -10.2468 56.0279
CA 2.9919 -39.7408 42.8944
CA -6.49895 -46.3107 74.0855
CA -36.9059 -37.1509 71.2052
CA 0.450495 -34.9747 43.8321
CA -33.281 -28.5996 55.9518
CA -4.86597 -18.0154 35.3854
CA -6.58764 -22.3547 47.5188
CA -9.47073 -11.3321 6.33572
CA -9.87824 -46.257 47.4292
CA -9.08506 -26.851 40.1767
CA -0.986499 -15.3511 31.7895
CA -8.20955 -17.1354 66.5833
CA -17.4301 -21.0371 36.4733
CA -37.735 -40.4429 68.7819
CA -15.2508 -41.5949 74.8407
CA -11.9434 -38.9085 42.2032
CA -8.57601 -51.563 55.5029
CA -28.6728 -28.6709 64.7262
CA -15.9732 -24.7947 56.5834
CA -30.3719 -13.7919 45.7029
CA -9.41919 -16.7327 53.9007
CA -8.06302 -52.3234 62.5838
CA 7.44193 -34.2737 62.3716
CA -37.9016 -21.7928 53.3069
CA -35.5123 -42.415 72.3222
CA -19.6842 -45.6643 43.9738
CA -31.7949 -19.5336 67.9133
CA -11.7513 -13.8711 44.1892
CA -37.5396 -46.759 42.2826
CA -8.18124 -36.8168 40.0614
CA -7.04372 -49.9679 53.9041
CA -19.038 -22.75 34.8834
CA -16.6286 -41.8612 40.6351
CA -18.8659 -11.1187 64.0033
CA -4.86902 -38.2997 69.1614
CA -0.719713 -19.5782 15.2223
CA -16.1091 -19.8071 54.1009
CA -34.3197 -27.5498 41.3411
CA -3.61845 -13.9205 15.5469
CA -15.5717 -8.3549 38.6472
CA -3.91204 -24.4588 28.6571
CA -32.6944 -21.5257 51.3865
CA -10.2219 -46.2194 78.7777
CA -0.48462 -22.5353 18.9526
CA -25.1821 -18.7231 42.2709
CA -39.0725 -48.8932 47.0618
CA -35.8907 -31.9897 47.2153
CA -2.76755 -18.2457 10.1355
CA -13.5802 -51.3157 79.3606
CA 0.632527 -15.1034 47.0452
CA -13.1798 -38.0146 53.6631
CA 3.70352 -13.6637 54.5181
CA -27.748 -28.5231 43.0336
CA -27.8586 -49.0879 70.7869
CA -24.9661 -12.5427 60.3175
CA -28.7577 -14.8087 46.4835
CA -1.08547 -23.5551 60.4761
CA -8.78155 -42.0666 50.2843
CA -13.4718 -11.341 39.9743
CA -14.3355 -29.6738 37.4649
CA -17.6069 -41.5999 80.7957
CA -20.0553 -40.0478 75.4999
CA -22.3007 -30.8673 53.4585
CA -2.14767 -51.3324 58.4001
CA -10.8558 -49.8529 50.37
CA -32.6811 -20.6337 43.603
CA -27.0119 -35.5742 55.9999
CA 1.64147 -14.8767 58.3236
CA -41.4892 -29.2393 53.2831
CA -21.2129 -43.3039 53.2207
CA -20.9093 -41.3022 40.0397
CA -4.41922 -17.4618 62.3651
CA -4.64039 -10.5086 8.08452
CA -17.6948 -45.273 44.0012
CA -12.1119 -28.2215 85.0077
CA -3.63655 -39.3848 79.0678
CA -5.59688 -10.5728 44.1791
CA -32.3511 -20.771 64.1381
CA -29.6561 -15.9399 40.4198
CA 0.158792 -25.7939 16.0823
CA -38.8955 -45.1453 51.3402
CA -10.4726 -9.21063 61.0189
CA -5.1249 -40.7325 39.0917
CA -40.1261 -45.7554 49.6444
CA -12.6568 -52.5809 47.5286
CA -18.2358 -40.5094 49.1426
CA -27.793 -15.4716 68.7352
CA -36.477 -29.2533 77.0574
CA -40.8714 -15.156 42.8498
CA -14.1897 -29.5481 63.8281
CA -25.0431 -24.2093 82.8803
CA -1.4581 -16.7969 28.6828
CA -36.7532 -20.4449 42.7508
CA -26.7388 -16.6905 71.3861
CA 2.19561 -24.377 48.7723
CA -21.3329 -32.0767 49.023
CA -14.9793 -27.567 87.6898
CA -10.2622 -15.2352 3.62007
CA -9.70356 -35.7558 40.4673
CA 4.17393 -24.4711 46.9704
CA -3.11356 -31.3322 47.9252
CA 0.849593 -35.9455 48.1981
CA -8.13451 -21.7086 51.4293
CA 0.254507 -28.1316 23.4684
CA -7.73838 -34.6326 34.7285
CA -7.89106 -8.96807 48.5302
CA -6.01261 -23.9316 17.7771
CA -6.05526 -36.4452 64.9008
CA -8.1134 -38.3349 84.2719
CA -19.9395 -19.3064 67.351
CA -25.5728 -11.8286 48.8236
CA -15.9008 -13.8643 41.8808
CA -14.5035 -43.565 45.2342
CA -9.51353 -15.2818 43.5615
CA -30.1446 -16.0611 42.3142
CA -32.9042 -45.7848 48.8236
CA -37.3269 -42.8944 45.8258
CA -12.3489 -40.0373 51.3819
CA -27.5303 -48.0504 73.895
CA -29.062 -23.6115 79.1282
CA -6.40003 -52.6059 56.6519
CA -12.3025 -7.54609 4.29666
CA 0.00720413 -33.675 57.2625
CA -14.9643 -46.3361 75.1209
CA -24.925 -44.3695 56.0728
CA -28.8967 -15.6247 57.5498
CA 6.74946 -23.0539 50.2505
CA -10.1065 -16.7219 37.248
CA -31.5261 -11.3003 68.238
CA -16.2357 -42.4163 76.4729
CA -19.4479 -41.9935 44.3683
CA -29.856 -1.67227 61.944
CA -19.5524 -9.45561 55.9733
CA -14.1696 -24.2921 88.6166
CA -24.6703 -32.778 65.6664
CA -18.0342 -48.2498 78.6164
CA -1.12164 -17.5043 68.444
CA -2.03378 -39.5427 81.0069
CA -18.3003 -27.0317 48.5748
CA -37.8105 -26.4796 45.9161
CA -14.3629 -26.7122 83.0643
CA -16.842 -24.6452 33.547
CA -9.3528 -44.3484 75.3734
CA -32.4907 -28.6183 61.1424
CA -10.1525 -12.9292 5.63327
CA -24.1154 -21.2646 83.0501
CA -31.5004 -37.9749 66.9932
CA -9.27301 -42.4463 72.0815
CA -3.62932 -29.0211 58.9243
CA 7.88084 -22.1039 49.221
CA -28.118 -6.93595 62.2743
CA 5.70216 -24.2502 65.7764
CA -22.8999 -39.4873 58.7168
CA -16.7453 -23.8416 45.5872
CA -34.7349 -20.8135 69.6787
CA -2.53267 -32.3144 54.1637
CA -13.1479 -29.8194 82.6117
CA -33.3828 -36.8387 66.3803
CA -30.7559 -34.6437 69.6278
CA 1.72749 -10.3871 56.8225
CA -29.2942 -23.4222 54.5729
CA -31.1483 -23.2929 53.249
CA -21.2908 -43.7349 37.039
CA -9.25962 -33.9674 46.4718
CA -32.4438 -45.2469 73.0133
CA -0.424672 -41.1226 81.477
CA -4.36189 -33.3839 42.8827
CA 6.08949 -13.7785 40.0002
CA -27.5083 -21.8174 54.4726
CA -24.622 -27.9544 66.9947
CA -18.3425 -19.4375 57.4177
CA -36.0885 -34.7081 53.2749
CA -25.9143 -39.0534 67.2947
CA -15.2182 -31.5742 39.027
CA -11.6533 -7.74312 49.012
CA -19.6685 -26.3247 82.8947
CA -8.87325 -38.5735 37.612
CA -5.17372 -32.1935 65.6694
CA -28.991 -41.2529 70.8662
CA -23.5502 -9.79683 60.3637
CA -10.2671 -27.9044 65.4655
CA -12.9385 -28.3429 59.4233
CA -11.9506 -34.7871 36.6268
CA -18.8246 -40.3407 42.5572
CA -15.7641 -30.4156 63.6357
CA -15.4567 -7.19031 58.0064
CA -22.5786 -22.3303 44.6712
CA -28.9638 -31.6058 69.2111
CA -4.8935 -16.9665 36.9887
CA -14.8639 -17.9435 37.9798
CA -29.9158 -23.414 71.0053
CA -3.26371 -15.864 47.2376
CA -34.397 -39.2884 47.6284
CA -10.284 -53.9209 58.7803
CA -27.0159 -12.9196 48.1114
CA -10.884 -24.3982 90.5701
CA 2.32882 -16.628 39.7112
CA -21.8721 -7.55613 65.272
CA -25.5996 -32.8743 38.7604
CA -15.7293 -13.8254 63.3893
CA -24.3845 -9.86962 52.7468
CA -6.64628 -27.1394 78.7112
CA -14.3079 -18.5624 33.4559
CA 3.79656 -26.1857 48.1079
CA -29.0237 -27.4997 83.3821
CA -6.5752 -36.0902 62.7957
CA -1.37254 -27.3026 38.125
CA -33.4351 -34.5713 75.5762
CA -35.7287 -34.6456 50.8554
CA -20.3835 -41.4975 61.5219
CA 0.812172 -23.4735 50.9824
CA -28.7292 -21.5379 47.0401
CA -28.7316 -10.9003 59.0968
CA -9.06332 -17.989 63.9512
CA -15.4792 -27.6881 59.3239
CA -1.70658 -11.5879 40.2214
CA -6.26674 -19.5601 51.8014
CA -10.5867 -51.2148 53.3003
CA -5.28796 -28.9168 40.1526
CA -25.7557 -32.3418 68.2902
CA -6.78172 -7.14444 58.3864
CA -23.2924 -24.023 62.0057
CA -6.1144 -16.788 38.3894
CA -33.2686 -30.3215 36.7241
CA -4.16152 -34.334 56.362
CA -1.44079 -18.9197 46.8746
CA -34.3351 -33.268 53.6519
CA -1.05301 -31.9841 43.8511
CA -12.7535 -34.5441 55.4901
CA -32.6897 -29.0177 43.2267
CA -37.8814 -29.7189 55.9359
CA -33.0064 -30.0912 72.6758
CA -23.631 -36.086 65.3557
CA -34.8008 -41.4102 49.0172
CA -10.8549 -33.0739 57.3174
CA 2.47034 -13.8228 51.1422
CA -38.3421 -30.7368 47.5168
CA -0.644107 -38.3017 42.4397
CA -35.8228 -19.282 55.5818
CA -35.7666 -32.0077 41.0964
CA -27.2955 -24.2235 62.1081
CA 0.669099 -22.8547 64.6928
CA -7.01959 -35.1729 82.3808
CA -23.1904 -39.4599 43.0763
CA 4.47839 -19.0516 54.032
CA -7.08558 -14.4411 55.2171
CA -1.47611 -42.7598 78.9627
CA -9.88905 -10.5369 8.26756
CA -6.51058 -23.6556 42.9167
CA -9.44219 -30.8359 79.3489
CA -30.0897 -33.0495 49.2368
CA -12.6667 -46.3156 47.4587
CA -21.9852 -40.8946 52.1691
CA -29.9775 -35.2843 72.4347
CA -16.2219 -32.8562 37.6222
CA -3.80055 -34.2226 60.9483
CA -19.6996 -13.7197 68.8385
CA -22.5247 -48.2182 54.1733
CA -9.66967 -25.6951 41.9793
CA -34.3638 -25.5366 61.387
CA -30.739 -24.8158 35.3767
CA -12.0486 -26.3229 41.8746
CA -12.2669 -21.0854 50.9132
CA -14.5758 -26.366 89.6863
CA -27.6816 -26.0582 73.2179
CA -6.89394 -8.47638 66.4714
CA -18.7952 -39.7942 62.8053
CA -5.75106 -14.6325 6.82769
CA -9.23967 -48.0608 48.6214
CA 3.36026 -32.6885 46.6906
CA -0.5822 -23.8072 35.3296
CA -10.889 -14.3482 61.3826
CA -5.19495 -23.5849 61.6432
CA -23.9308 -25.8376 64.2139
CA -33.8478 -16.8357 64.4225
CA -7.54133 -12.0378 51.7739
CA -13.71 -20.2118 32.8511
CA -16.2825 -29.4169 58.524
CA -13.9521 -42.4024 79.6518
CA -26.4983 -17.6977 87.8972
CA -13.6019 -34.0193 39.091
CA -10.3175 -18.0362 69.9287
CA -23.6133 -8.6599 63.9995
CA -1.80053 -23.4932 47.2979
CA -29.1512 -28.0567 62.3272
CA -3.5007 -42.3578 43.6433
CA -12.4294 -14.1837 64.4376
CA -11.064 -37.4928 33.4044
CA -3.15996 -26.4653 57.2907
CA -13.77 -19.7275 52.901
CA -16.0797 -42.6504 43.7007
CA -6.65066 -49.0645 67.005
CA -25.3037 -32.7108 44.7957
CA -6.10116 -10.4019 61.3871
CA -29.3509 -16.3972 44.9143
CA -35.4553 -31.0625 73.019
CA -7.31548 -22.7646 68.0009
CA -19.3074 -21.0026 53.157
CA -12.6698 -31.1158 88.8992
CA -17.6442 -28.4966 47.4148
CA -33.5423 -33.1621 77.2259
CA -27.9554 -33.2791 65.9446
CA -24.3658 -41.1187 73.2191
CA -37.2538 -31.2002 51.3857
CA -34.0908 -28.5448 62.4315
CA -6.80818 -9.64943 33.5265
CA -18.8317 -13.7471 59.4522
CA -11.1963 -12.3335 1.90335
CA -8.79682 -50.0195 47.9786
CA -16.6431 -16.1018 41.3127
CA 2.80485 -11.3234 61.1757
CA -15.2826 -42.793 52.0141
CA -16.5191 -31.6177 41.7883
CA -18.5024 -19.341 52.6614
CA -5.44529 -10.2659 11.886
CA -9.63413 -12.6649 48.055
CA -17.0102 -15.6697 52.6452
CA -9.63567 -36.8727 69.0746
CA -33.5862 -10.6166 66.1063
CA -34.3248 -23.133 46.2005
CA -9.23159 -38.2909 32.0409
CA -27.4327 -34.3491 67.6905
CA -25.5982 -31.4328 36.1133
CA -6.09608 -25.286 61.0171
CA -9.85644 -25.0708 86.1461
CA -22.8596 -33.9728 58.5154
CA -25.0218 -14.747 49.8537
CA -17.9097 -46.2001 48.8467
CA -4.38704 -39.1206 39.5763
CA -22.0934 -33.0246 55.6615
CA -3.59908 -34.6482 64.4138
CA 1.87281 -14.4638 49.4155
CA 0.763796 -40.2134 39.3835
CA -3.24039 -24.623 16.5378
CA -6.60568 -10.3831 39.8927
CA -7.22788 -40.4453 83.6308
CA -13.8002 -27.8298 42.3668
CA -36.4186 -16.468 43.613
CA -3.34079 -40.7907 44.9029
CA -22.1075 -42.1866 49.3382
CA -28.9657 -9.86142 67.0582
CA -30.3758 -31.1144 45.0737
CA -20.4395 -30.5019 49.2933
CA 3.32815 -14.1394 57.8132
CA -6.17649 -42.1868 49.3854
CA -16.8684 -21.0563 63.2873
CA -24.6364 -29.5061 33.272
CA -28.4088 -2.68276 57.9642
CA -26.6423 -37.0514 69.7788
CA -39.1778 -13.4479 39.9567
CA -24.4094 -22.5599 43.4995
CA -11.7856 -31.6 48.8996
CA -24.2344 -15.2831 61.9029
CA -4.128 -14.3762 32.9334
CA -26.4551 -29.8434 35.6563
CA -36.5502 -21.825 63.3809
CA -5.83489 -25.8729 65.8363
CA 5.7997 -28.5136 48.9469
CA -9.54892 -42.6206 32.8342
CA -23.4073 -27.628 76.2744
CA -8.54964 -23.6424 85.2546
CA -26.5371 -25.6482 39.1026
CA -4.63403 -11.7765 40.4445
CA -38.3181 -34.9709 75.0224
CA -41.0406 -27.9114 55.7701
CA -25.3073 -27.9078 34.8917
CA -37.2845 -32.0855 53.5531
CA -25.9421 -32.924 50.3114
CA -20.3313 -22.1748 58.4429
CA -31.4989 -32.6037 37.2081
CA -3.16564 -43.3271 76.5005
CA -6.8874 -27.0469 60.7562
CA -13.53 -21.816 74.7149
CA -0.188344 -26.5676 50.5417
CA -1.39487 -39.2055 33.9084
CA -12.6272 -19.0704 71.1072
CA -24.1016 -35.0094 57.3554
