489

CA 29.4151 0.136928 63.421
CA -12.851 41.4126 52.5081
CA -21.489 12.38 40.5771
CA 2.23593 -7.46455 51.8261
CA -3.81913 -21.905 35.7291
CA -10.0599 19.8725 32.6266
CA -14.58 -16.5552 44.7653
CA -15.0722 19.7203 34.7834
CA 8.48396 -23.4193 67.8984
CA -19.4963 0.0257108 38.7735
CA -19.7545 8.30675 37.3562
CA -16.0176 18.3631 49.1135
CA 21.4029 -0.423944 63.0329
CA 7.34745 17.3472 65.07
CA -9.07241 -34.5933 68.7699
CA -2.88116 -19.539 71.0671
CA -3.78694 -11.4697 66.3897
CA 13.3379 -34.2375 51.6538
CA -9.05541 14.5626 45.4701
CA -18.0034 -20.7691 87.8569
CA 4.00766 -24.2919 49.2386
CA 14.2749 -9.7525 62.3072
CA -24.7556 -12.0293 50.2513
CA 0.736022 -1.19832 50.3896
CA 2.24543 -15.8627 50.6749
CA -17.2986 -8.96888 60.1791
CA -6.17978 -9.35824 29.6123
CA 15.6271 1.58546 43.0321
CA 7.60988 -40.3993 57.8484
CA 25.5019 -29.0307 58.0375
CA -7.0842 -20.893 47.8811
CA 5.74869 -5.41529 57.0025
CA -29.3717 8.8018 46.1817
CA -12.0394 -30.766 67.0228
CA -3.15901 27.2029 44.6338
CA 0.0695772 -1.41482 85.286
CA 12.5816 -27.4361 48.0246
CA -21.7693 26.3622 25.4051
CA -12.1785 -15.5314 61.7354
CA -9.34256 -19.6587 29.332
CA -6.58717 -9.58434 88.577
CA -11.3482 -33.7425 68.028
CA -26.5034 13.6609 41.5036
CA 8.38501 -17.1918 50.7651
CA 14.4388 -26.4154 44.5176
CA -5.42373 10.7127 72.14
CA 25.0427 25.4453 50.3329
CA 18.8942 -7.21268 83.5722
CA 4.98215 -14.1326 75.489
CA -7.27937 -20.3712 89.4238
CA 11.0738 14.6732 50.9401
CA -2.4118 -24.4448 77.3388
CA -1.69931 -30.3948 50.267
CA 10.2808 3.8643 51.6334
CA -11.7099 -10.0758 61.9963
CA -0.0645054 -31.4204 50.4457
CA -9.89018 -13.9419 90.0333
CA -6.47354 -19.6075 33.6424
CA 16.3539 -12.623 61.4068
CA -0.032049 20.3055 87.9359
CA -22.773 17.1701 43.8193
CA 23.3192 -0.626914 63.2934
CA 5.82167 -10.3279 48.8548
CA 5.83424 -13.1978 61.9815
CA 20.9053 -23.8039 71.6721
CA -11.954 -17.8878 59.5535
CA 14.0812 -5.27412 90.2066
CA 5.82056 8.03799 61.3696
CA -8.31478 11.2896 48.1493
CA 6.68212 -24.9244 45.5558
CA 20.4632 -19.012 52.5258
CA 11.5101 -5.68663 80.9656
CA 7.73094 -14.1532 85.3524
CA -3.27327 -9.60958 56.6053
CA 20.8622 -10.4143 51.4714
CA 10.5557 -38.9003 49.0205
CA -20.5103 1.54468 28.8514
CA -5.45014 -22.8635 17.8713
CA 2.90336 -32.0538 51.6322
CA 13.6934 -11.7043 67.6656
CA -14.7278 8.93354 35.5771
CA 25.8126 -27.823 53.7893
CA -1.38251 -13.6368 47.2743
CA 13.8785 -0.380831 73.5273
CA 5.60539 -1.40406 63.4274
CA 3.63972 -14.5603 57.8461
CA 9.26386 -5.20948 71.8006
CA -12.9784 -11.3191 61.0142
CA -22.2788 5.92564 27.5223
CA -10.0193 -18.496 85.3526
CA -1.54898 1.81904 69.255
CA -5.74175 -5.10675 61.7655
CA -0.929295 -4.63884 72.352
CA -9.08186 -28.8814 65.7706
CA -17.3075 -21.8716 43.4742
CA 9.49813 -39.1472 53.003
CA -2.20904 -20.3299 75.0949
CA -5.13277 17.8125 49.8092
CA -6.62909 -16.5841 58.7821
CA 4.60315 3.93527 59.7964
CA 16.8036 -9.42362 82.7353
CA 12.5798 -7.97551 92.5016
CA 1.26432 -4.96866 72.1726
CA -17.9094 -10.9601 46.9219
CA -22.6514 -3.21163 25.2279
CA 6.75178 -14.42 82.8958
CA 11.9529 -0.999094 46.8737
CA -9.16997 31.0304 59.2144
CA -15.0137 -20.9657 86.1034
CA 6.19957 -20.2395 59.8859
CA 7.2469 -5.3781 81.592
CA -5.2389 23.5187 50.3127
CA 4.80128 -5.0755 63.5812
CA 3.03398 -12.9947 80.1052
CA 20.0653 -23.549 52.1995
CA -18.3024 -15.0121 40.3548
CA 19.3609 -10.541 74.5011
CA -21.2723 -7.95855 60.8501
CA -25.3203 9.09741 45.8426
CA 3.32763 -3.70699 60.9893
CA -9.65467 -32.1566 68.616
CA 19.2642 -2.25313 85.9153
CA 26.1638 29.5186 48.8281
CA -2.15871 -7.92274 53.4683
CA -11.3813 -14.6595 78.771
CA 26.4414 21.8199 60.2763
CA 13.9936 -5.10493 53.3114
CA 6.82376 -11.3493 81.5665
CA -4.9647 -24.1564 42.0386
CA 4.9759 -17.4595 73.277
CA 9.30136 -8.73445 57.5463
CA -7.12733 -6.32267 60.1634
CA 30.0891 -28.0516 53.356
CA 24.1723 22.1318 53.7661
CA 17.2321 -24.901 51.241
CA -10.7351 -8.05741 62.2903
CA 9.88475 -10.8054 64.5721
CA -19.6559 -6.46505 61.0424
CA 21.1065 -13.4578 48.3037
CA -4.94986 -33.1397 41.3399
CA -21.5171 -13.23 40.0262
CA -23.5788 -6.31883 56.6033
CA -24.8504 14.4271 42.397
CA 0.257958 -9.94654 73.2336
CA 1.06462 -9.32111 68.0538
CA -1.51585 -6.53601 60.2918
CA -11.569 -17.2186 57.8583
CA -1.00346 -4.59538 35.3283
CA 10.7131 -1.6859 72.8573
CA -26.2456 -6.90375 36.6954
CA -7.09549 -21.7945 81.8961
CA 2.57606 -8.27608 61.8004
CA 2.92537 -11.3461 59.424
CA 15.5575 -34.9383 55.9885
CA -9.83303 -20.1896 40.4114
CA -24.9763 3.86609 38.6616
CA 23.31 -18.4732 68.8533
CA -0.131988 -13.9292 44.89
CA 2.27952 -26.2155 52.0347
CA -2.56839 -1.59723 72.7386
CA -0.0572598 -3.29476 64.2218
CA -2.80236 -31.1052 43.4557
CA 23.4505 -8.11974 63.2622
CA -10.424 -14.4916 59.0296
CA 11.0497 -39.9082 53.9202
CA -7.68905 -12.2445 69.1125
CA -10.367 -15.8473 88.264
CA -21.304 -0.464298 22.8981
CA 14.2156 1.31933 69.2405
CA -19.0264 15.8656 45.8622
CA 32.4238 -27.1635 53.1533
CA 1.47896 -12.9183 75.8839
CA 21.0298 -9.54122 64.7456
CA -7.51476 -34.6916 39.1779
CA 20.8044 -20.2185 82.8666
CA 1.94378 24.1603 37.2636
CA -12.2989 -4.10599 56.5607
CA -4.8833 -20.3424 89.6336
CA -2.94457 -20.556 76.759
CA 14.9494 -23.6524 54.0698
CA -0.582358 -2.83767 49.6908
CA 8.49742 -11.1916 83.3077
CA -6.8239 -18.8393 45.0389
CA 3.58742 3.9085 56.3182
CA -4.91628 0.659532 66.7842
CA 24.6631 -1.43342 67.697
CA 21.439 -15.5274 71.6983
CA 4.37638 7.15918 58.077
CA 26.2601 18.6416 59.597
CA -3.48355 -3.95357 63.1437
CA -27.3115 8.45622 44.5804
CA 0.165186 -3.93689 77.1704
CA 28.4498 16.9226 52.4926
CA 11.8943 9.88761 58.9867
CA 7.60325 -15.2279 52.1912
CA -9.78332 15.0335 43.3379
CA 23.2295 -23.1213 51.1121
CA -11.5701 40.3988 56.4091
CA -6.42725 -21.2861 38.1759
CA 13.5824 -6.63785 91.5094
CA 3.81505 -0.390795 50.0489
CA 16.7666 -3.53956 69.9222
CA 5.77312 -4.02735 64.9665
CA -16.3983 -17.4156 41.5711
CA -7.53274 -15.5485 85.3298
CA -6.31364 -21.4518 29.0405
CA 0.813381 -15.7393 62.9032
CA 15.2656 -0.463358 45.0718
CA -6.2372 -18.5813 91.521
CA 6.43117 -16.7944 66.5985
CA -20.952 -3.77796 56.0217
CA -13.1927 42.4463 55.7503
CA 21.5567 -24.4022 68.7793
CA 22.7413 -23.7221 70.349
CA -21.2549 -3.65949 37.0852
CA 12.7276 -4.09943 54.912
CA 21.5055 23.0319 53.3585
CA 3.55364 -7.44129 71.8909
CA 18.6818 -3.78513 74.1059
CA 7.00998 -2.75941 59.1947
CA -12.1104 -28.3669 65.9829
CA 12.0652 -25.848 55.519
CA 14.0414 10.3614 64.9598
CA 17.1986 -5.02506 68.2859
CA -2.33181 -10.0625 60.0851
CA 19.6779 -18.8188 73.1919
CA 17.771 -7.91839 85.5838
CA 11.9683 -15.296 63.0486
CA 9.26999 -32.5022 51.9093
CA 9.48153 -5.31643 63.9822
CA 4.01531 -4.93798 51.7253
CA -11.3562 -22.6276 40.4122
CA 22.0042 2.66798 41.547
CA -7.34234 -22.377 61.3939
CA 4.22466 0.754207 62.9877
CA 0.778728 -4.99549 61.7573
CA -12.5109 -12.7054 28.6817
CA -20.6212 16.5255 46.917
CA 28.6565 17.5569 50.3186
CA 6.00012 -16.3091 72.1814
CA -9.53996 -30.4333 67.1825
CA 12.7824 -6.59716 87.7241
CA -10.9837 5.38458 34.3849
CA 24.8346 -26.756 49.066
CA -0.788981 -2.9045 62.0113
CA -26.3986 -7.12046 53.9302
CA 14.2619 -5.87145 77.8429
CA 13.5969 9.24842 63.581
CA 9.04839 -13.7482 48.5672
CA -26.2366 -11.9438 36.9945
CA -6.58098 26.7587 50.8361
CA -10.2512 -20.7755 87.0992
CA 23.5565 -24.5765 64.3741
CA 0.5613 -23.027 76.5755
CA -13.4699 -20.7738 38.3295
CA 10.4353 -8.7346 73.3131
CA 24.0229 -1.51701 65.1366
CA -7.48334 -17.2408 71.2106
CA -18.8284 5.70985 40.155
CA 12.0359 -38.0346 55.2859
CA -16.7711 -8.92598 26.9063
CA 14.8764 -26.1384 48.04
CA -12.5356 -20.3753 84.1433
CA 6.2806 26.8723 38.6812
CA -12.9324 38.0417 53.5857
CA 8.38126 -16.1086 60.2153
CA -11.086 -29.7064 61.1418
CA 7.6566 1.0643 50.7699
CA -15.5221 -15.4707 60.9017
CA 7.57794 -3.72023 64.3201
CA 19.168 -1.55697 62.9671
CA -9.01651 -28.3349 63.638
CA 6.95039 -5.17846 67.3264
CA -8.14219 -22.3882 46.9379
CA 7.4838 -13.5279 80.4643
CA 20.5581 -20.7324 78.4273
CA 16.3361 -26.2183 66.1796
CA -2.88295 -13.9186 80.8453
CA 1.35981 -14.462 74.7247
CA 1.16087 -30.6123 52.4555
CA 12.2946 -8.69836 75.4909
CA -8.21142 -20.01 45.2077
CA 22.923 -18.2849 64.1824
CA 17.1916 0.100996 74.9677
CA -11.5394 -17.7286 84.073
CA 17.0804 -19.3494 50.8341
CA -16.9744 15.0598 50.7082
CA 15.0536 -38.0089 51.493
CA 21.7426 -15.666 83.0643
CA -23.4032 -13.8015 47.5557
CA 10.4469 7.06355 64.1009
CA -2.51093 -7.47659 71.2512
CA 16.1015 -25.0145 56.1209
CA 1.62735 -4.35247 32.5113
CA 6.97384 -14.8622 59.8456
CA 8.42313 -26.9709 52.5544
CA -29.1547 -13.9993 40.0697
CA -8.86704 -35.5259 41.2093
CA 5.20837 -23.3671 51.3364
CA -13.7645 -20.343 90.2845
CA 5.96947 -7.39806 59.3479
CA -10.6414 -12.5293 78.4385
CA 6.30394 -36.1396 52.0282
CA 13.0888 11.2654 52.6415
CA 13.8159 -6.59585 70.7996
CA -5.94156 -18.4301 47.982
CA -5.617 6.27824 78.6911
CA -6.5552 10.9398 47.6154
CA -12.0785 -24.021 42.0787
CA -28.5933 7.9601 34.7994
CA -4.07142 -23.1736 80.4127
CA 19.4215 -22.746 69.0943
CA -9.13563 -33.2657 45.4503
CA -5.77232 -2.31086 74.1789
CA -7.95483 -34.9191 43.7556
CA -3.4559 -14.6707 84.0143
CA 1.70419 -15.1342 52.7833
CA -24.8167 6.95252 46.2841
CA -11.1667 -19.286 82.6923
CA -3.97801 24.2922 47.8478
CA -13.0086 -23.203 84.4727
CA 6.02546 -9.43418 62.1641
CA -12.1927 -17.2477 80.4252
CA -3.13695 -6.52045 31.3933
CA 7.64125 6.20537 57.4145
CA 4.44189 -13.2967 60.012
CA -19.7464 -21.4008 45.2307
CA -12.7377 -16.6206 82.0765
CA -2.76157 10.2889 69.8304
CA -16.718 3.55135 54.8205
CA -17.5689 6.64327 54.5306
CA 18.0656 -32.6601 52.136
CA -23.4697 4.71511 40.9762
CA 4.50561 -2.44492 64.8286
CA 1.45722 23.5011 40.8934
CA -8.16814 -16.6917 44.3082
CA 12.5249 1.46233 45.7534
CA -9.40248 -11.3019 88.7151
CA 26.4433 -7.57086 80.4498
CA 2.14137 0.29884 64.4854
CA 5.12788 -15.1368 62.8416
CA 23.2065 -2.43001 63.269
CA -25.5922 -9.74941 56.8864
CA 12.7045 5.66213 52.8136
CA -5.77828 -16.9117 46.606
CA 3.73626 -5.77461 76.4758
CA 17.9533 -11.7081 64.6706
CA 0.305586 -15.8914 76.6632
CA -26.478 -13.1347 40.7367
CA -16.5626 14.5412 44.0843
CA 12.6646 1.35823 42.109
CA 10.7624 12.4377 53.6769
CA -23.1783 -5.48135 60.0618
CA 15.4686 -2.94341 68.6556
CA -7.60517 -17.4998 60.3426
CA 8.33555 -0.000875849 65.521
CA 19.9565 -24.6308 64.577
CA -3.91996 -15.4374 93.6738
CA 3.30197 -7.1965 69.0392
CA 2.24514 -12.638 61.2688
CA -7.92206 -26.4107 61.3989
CA 2.89459 30.152 38.9993
CA 14.0167 9.12382 60.7926
CA 21.014 -29.9209 53.3176
CA -9.6903 -16.4178 47.3702
CA 1.68277 -6.6666 49.9219
CA 19.2201 -25.6394 48.8019
CA 16.8817 -21.5021 54.352
CA -0.994989 -2.57683 74.8725
CA -1.30502 -14.3726 49.7174
CA -7.21079 -17.6008 88.8614
CA -3.86284 -15.076 82.2736
CA 22.2781 -0.770358 66.1833
CA 6.90816 -12.6461 58.4817
CA 20.612 -10.5762 84.0744
CA -3.78167 -11.6082 43.5408
CA -11.8431 -28.0887 67.9567
CA 23.2958 -6.74579 75.486
CA -1.59722 -15.1024 71.9772
CA 29.6749 21.2736 47.2628
CA 10.5091 -3.88367 50.7195
CA -6.44481 -16.343 27.8335
CA 4.35631 -10.9342 71.4507
CA -12.8653 -12.2729 65.5395
CA 19.6737 -36.1719 50.5629
CA -9.70587 -19.5899 83.806
CA 23.3905 -5.65144 79.6623
CA 10.9413 -8.08743 85.0756
CA -22.9197 7.70144 44.3304
CA 15.6305 -36.1371 53.9584
CA -0.139244 -20.7815 69.0206
CA -3.74836 -14.0639 88.9811
CA -8.12762 -15.084 49.2948
CA 25.5103 -18.4063 78.9623
CA -9.61758 -14.2498 66.8222
CA 14.9178 -11.5048 58.0437
CA 18.9193 -14.192 54.1981
CA -12.6042 31.9565 60.8847
CA 7.53024 -18.9037 61.7446
CA 15.0905 -5.33634 73.614
CA 7.34498 -2.4955 70.8038
CA 26.0989 -26.1507 54.9436
CA 2.11627 -4.949 70.3986
CA 8.16311 -3.61109 81.4163
CA 2.43611 -4.52184 52.507
CA -2.36521 23.4173 45.5149
CA 12.2528 -5.77457 58.0031
CA 13.3183 -19.4971 50.9004
CA -5.02181 -5.87228 58.2325
CA 18.8798 -18.7081 50.8337
CA -26.587 -4.00385 59.4541
CA 10.366 -10.388 59.5158
CA 18.3488 -17.314 72.4178
CA -11.8334 -14.7623 63.3669
CA 0.292855 -9.16035 62.872
CA -19.197 24.2604 25.8046
CA 3.91657 -5.54084 67.9719
CA 11.8522 -36.074 55.2841
CA -3.66912 -18.1087 86.2258
CA -2.91242 -8.48105 63.7909
CA 9.59883 -7.78512 62.9031
CA -5.68346 7.85555 76.3256
CA 22.2369 -21.3786 50.7625
CA -0.947082 -33.5091 54.8144
CA -17.9435 -1.41348 52.4301
CA 18.8499 -3.26826 68.5675
CA 6.49089 -17.3548 49.8212
CA -15.1449 -22.2421 91.01
CA 11.9594 -10.6532 67.4132
CA -11.6594 36.1837 61.2303
CA 13.7388 -24.1942 50.5367
CA 9.18454 5.75767 62.5064
CA -13.9459 -13.8598 84.7725
CA 28.3861 -8.14941 75.9161
CA 9.74622 -0.657618 51.9321
CA -6.87931 -20.5437 32.0416
CA 0.58274 -11.3173 49.6369
CA 10.0662 18.7705 65.595
CA 19.5539 -0.334519 78.4619
CA -13.2234 -17.4752 86.6304
CA 27.0918 26.5041 50.1172
CA 3.74678 -0.320179 65.3389
CA 1.87947 -5.8015 80.9433
CA -14.9049 -16.5058 83.8757
CA 26.8463 31.9507 48.6403
CA -27.7716 -3.17702 39.1595
CA 19.4605 -7.30693 69.4743
CA -7.89508 -12.1514 44.266
CA -0.566285 -19.744 70.9743
CA 5.64769 -7.9457 76.6641
CA -2.01548 8.04158 78.473
CA 9.17067 27.322 37.5688
CA 4.54261 0.773346 71.4595
CA -25.8684 -0.900415 36.901
CA -17.0456 -12.7998 45.2129
CA -4.11342 -10.4559 63.6822
CA -13.5107 8.91585 31.8158
CA -7.28205 13.3427 48.7484
CA -18.0176 12.368 37.3101
CA -0.377083 -24.4377 67.9759
CA -22.3372 -12.3837 45.886
CA 19.796 -29.0874 48.8716
CA 14.8777 -18.6736 73.5492
CA 14.0346 -26.9918 71.6468
CA 15.9527 -6.40323 71.8559
CA -10.0611 -11.6579 86.6324
CA -26.7432 -3.1825 53.4222
CA -6.14341 -24.7627 44.6595
CA -3.47307 25.8346 50.1417
CA -2.21442 -3.98326 33.3227
CA 1.14995 -21.3387 76.0517
CA 30.5048 15.2547 50.7861
CA -13.7869 -15.2951 74.6899
CA -5.76128 -4.82759 73.6391
CA -5.98953 -34.9934 37.5875
CA -0.796779 -4.85732 59.1614
CA 26.8277 28.4454 51.0435
CA -0.940651 1.23841 73.0512
CA -8.42328 -14.7244 53.0577
CA 10.654 -40.3432 55.9116
CA 6.56125 -4.09161 61.4507
CA 2.15465 -27.245 71.8079
CA -5.19709 -22.5067 46.2195
CA 14.5668 -6.41398 49.4019
CA 22.4664 -10.8761 47.0894
CA -25.5173 10.4529 44.0589
CA -4.33302 -16.2801 45.6588
CA 8.70999 -2.53719 53.0292
CA 1.52887 -10.9521 47.3864
