489

CA -18.6294 -33.4122 61.73
CA -22.5708 -13.0588 58.905
CA -11.8978 -41.6047 49.8474
CA -38.4596 -38.3838 75.7524
CA -20.2234 -17.1182 67.7911
CA -26.4294 -35.1139 34.428
CA -17.3718 -13.939 46.5018
CA -5.8452 -35.7568 53.8139
CA -34.8508 -20.225 46.2984
CA -20.9415 -33.2004 37.8216
CA -33.3055 -51.2039 48.4
CA -25.9368 -32.8904 33.2072
CA -38.4621 -24.7043 51.6932
CA -24.4686 -23.6267 61.9647
CA -35.2152 -42.6304 73.5953
CA -19.397 -34.1961 53.4817
CA -15.8043 -43.1388 61.0229
CA -36.5858 -37.7805 56.9887
CA -32.5153 -16.6993 73.9328
CA -10.9026 -42.4919 71.3519
CA -4.4639 -17.6553 32.5439
CA -2.74297 -36.6709 38.0393
CA -4.87281 -47.3701 60.238
CA -38.1511 -34.3024 77.8811
CA -4.17156 -37.7936 79.9318
CA -28.7592 -28.2469 65.5587
CA -5.68705 -23.7056 38.3253
CA -20.5152 -49.3467 47.4081
CA -4.34038 -33.93 33.8598
CA -12.2996 -12.4194 6.29506
CA -41.3786 -34.5307 51.5205
CA -16.1009 -45.7776 39.4682
CA -24.0934 -45.5032 52.8625
CA -25.8773 -35.4686 74.0085
CA 7.99825 -30.6293 53.3738
CA -11.8659 -41.5485 63.7168
CA -16.3552 -36.4874 28.1234
CA -27.9337 -19.9384 71.2422
CA -28.9532 -25.5554 63.9832
CA 6.90438 -27.9791 51.0009
CA -40.4811 -39.9248 76.3618
CA -9.74378 -49.545 50.03
CA -23.6836 -44.4967 48.527
CA -40.2878 -30.8387 56.5708
CA -7.43414 -18.142 35.7942
CA -20.542 -20.1815 66.4939
CA 2.44163 -35.5128 52.4028
CA -28.3825 -12.9712 57.2847
CA -35.3035 -27.1818 40.1375
CA 4.47207 -41.42 61.0558
CA -23.1129 -35.4417 50.7444
CA -32.4934 -54.0913 51.3194
CA -21.8096 -25.3716 35.2247
CA -24.5366 -22.8411 48.2674
CA -9.95129 -17.2278 40.9063
CA -18.5473 -43.431 34.902
CA -29.2561 -34.7334 75.6204
CA -33.3559 -35.5875 42.4621
CA -10.4686 -21.4145 64.0199
CA -17.9963 -17.9867 63.5674
CA -25.5682 -21.2651 76.9464
CA -24.885 -42.1101 40.2599
CA -28.6724 -22.0091 49.8631
CA -36.464 -47.8332 57.2627
CA 6.01292 -18.7648 51.0902
CA -32.1226 -37.8586 61.661
CA -27.0959 -27.6938 59.9291
CA -7.092 -41.9209 51.4304
CA -19.0416 -11.7886 41.1553
CA -4.39072 -10.7737 15.5571
CA -34.386 -28.5899 51.2564
CA -15.6597 -48.6701 56.128
CA -26.0189 -18.2676 71.6333
CA -14.9942 -47.8478 45.679
CA -27.3814 -32.0188 34.7564
CA -11.7231 -41.3619 38.0269
CA -12.1242 -49.5124 43.1793
CA -15.6524 -40.7484 40.626
CA -31.1943 -51.5131 51.0654
CA -24.2262 -17.6205 71.4864
CA -13.3584 -22.2575 39.1471
CA -32.4648 -27.4327 69.7215
CA -22.9966 -29.2316 53.951
CA -3.96302 -8.49918 8.87347
CA -24.7262 -22.3351 44.5562
CA -9.98101 -13.9783 2.79169
CA -19.0166 -49.116 38.7578
CA -19.7986 -37.3354 33.9812
CA -24.487 -14.0438 48.2842
CA -10.5722 -37.8524 53.7524
CA -29.0146 -22.2707 54.526
CA -17.4075 -42.8267 63.1496
CA -23.1542 -37.6062 42.3523
CA -44.0367 -32.114 56.6209
CA -35.7388 -50.3406 50.2862
CA -14.3114 -25.6754 48.579
CA -27.1475 -6.95035 36.3371
CA -35.3268 -57.8575 49.1375
CA -5.80596 -13.3187 57.412
CA -24.0591 -23.696 60.0015
CA -32.0811 -54.3475 53.0609
CA -17.2829 -39.0484 62.095
CA -17.3987 -40.037 77.024
CA -7.13407 -35.6412 48.4634
CA -17.2253 -48.5201 73.4032
CA -36.3527 -30.3686 52.7147
CA -19.5439 -12.4553 62.7803
CA -16.2713 -32.1827 41.473
CA -12.8362 -46.5347 45.0143
CA -8.31662 -46.9082 70.204
CA 3.11609 -40.2969 56.8426
CA -20.6989 -25.0872 56.4561
CA -1.02656 -22.2191 45.1467
CA -21.9822 -46.6001 75.6514
CA -32.1142 -39.3415 70.6988
CA -18.9447 -21.7872 45.4706
CA -16.4769 -16.8376 40.0733
CA -9.53649 -49.9709 64.1413
CA -6.58764 -22.3547 47.5188
CA -5.16389 -5.68307 8.36623
CA -7.64052 -43.3482 75.3832
CA -15.0827 -50.114 51.8883
CA -12.4988 -41.3014 35.2318
CA 4.70878 -38.6371 50.2292
CA -11.6611 -34.3126 58.0728
CA -30.8321 -39.4388 80.7605
CA -41.7888 -29.0074 72.3679
CA -20.1231 -24.6648 64.4629
CA -5.05126 -44.6808 66.3347
CA -2.12218 -33.0733 51.6081
CA -15.9732 -24.7947 56.5834
CA -3.9233 -41.1729 79.0967
CA -38.7897 -35.89 48.2627
CA -36.1051 -45.6751 56.1268
CA -32.015 -37.6404 42.7093
CA 1.58199 -34.8269 42.4198
CA -8.54352 -11.9881 56.4948
CA -0.164472 -35.5704 55.8472
CA -12.0395 -38.4789 29.8917
CA -24.5789 -21.0293 37.766
CA -6.85134 -17.3232 55.9054
CA -4.81685 -24.7645 62.9704
CA -24.0901 -13.7177 44.984
CA -19.038 -22.75 34.8834
CA -30.2126 -36.6252 57.3943
CA -18.1978 -21.5167 55.8282
CA -33.8635 -46.6354 70.6271
CA -0.719713 -19.5782 15.2223
CA -34.652 -23.4993 64.5647
CA -4.57503 -43.4972 63.2873
CA -3.61845 -13.9205 15.5469
CA -16.7362 -25.5979 47.2042
CA -17.9797 -22.7517 61.6541
CA -29.6766 -33.7115 42.5416
CA -14.4987 -32.3696 33.9264
CA -0.48462 -22.5353 18.9526
CA 7.96059 -32.8773 56.5878
CA -28.6618 -30.3388 36.896
CA -4.71536 -22.4225 22.8682
CA -2.76755 -18.2457 10.1355
CA -10.1121 -38.9293 71.9008
CA -33.343 -37.7299 45.4437
CA -31.655 -50.1933 72.1091
CA 3.70352 -13.6637 54.5181
CA -32.5191 -21.4588 37.8383
CA -16.304 -31.5389 59.6221
CA -19.0161 -37.214 42.1495
CA -14.5537 -32.0845 60.1845
CA -32.967 -22.5742 51.1017
CA -29.1522 -22.7827 80.8935
CA -9.16337 -50.4461 61.973
CA -12.4094 -54.6685 70.5591
CA -11.4368 -13.3887 4.38484
CA -12.2897 -49.8582 70.4243
CA -26.5573 -19.3581 40.3425
CA 2.9287 -21.3933 49.7989
CA -12.0472 -41.0146 43.6443
CA -4.41964 -22.6811 28.1337
CA 5.33279 -41.4617 49.5014
CA -29.5775 -29.6131 52.4905
CA -2.00584 -41.6976 42.8897
CA -2.46301 -23.9388 33.3806
CA -20.9093 -41.3022 40.0397
CA -39.2875 -35.4694 71.7032
CA 3.76103 -37.6413 31.5878
CA -14.4699 -15.3896 61.1882
CA -37.9264 -46.7544 52.911
CA -31.1366 -17.211 40.6975
CA -23.2952 -10.201 37.0141
CA -35.94 -19.6276 50.9873
CA -38.6183 -16.4715 55.0485
CA 0.158792 -25.7939 16.0823
CA -12.0844 -19.4669 35.8249
CA 6.10043 -32.7453 52.0742
CA -3.52567 -40.5136 35.2876
CA -3.23314 -33.0729 41.0487
CA 6.07927 -33.9193 46.707
CA -6.21095 -23.4814 31.1371
CA -4.05062 -18.6701 30.7669
CA -31.6434 -28.3318 62.7454
CA -31.639 -18.0766 73.174
CA -16.3531 -22.7544 37.2317
CA -23.8856 -19.8094 51.9675
CA -0.670821 -40.1529 41.5833
CA -36.7532 -20.4449 42.7508
CA -5.18091 -38.5691 39.5173
CA -22.1835 -41.9411 62.8905
CA -14.6615 -23.3824 36.7121
CA -33.8624 -52.9385 48.2693
CA -17.0757 -12.9159 38.2307
CA -14.6578 -34.8218 52.1226
CA -5.93767 -34.7535 37.9398
CA -32.5472 -26.5376 68.0507
CA -26.5555 -9.993 41.6771
CA -23.8456 -45.8504 78.796
CA -14.5654 -33.8064 84.7826
CA -26.9292 -32.2876 56.8893
CA -20.0091 -14.067 68.1883
CA -6.01261 -23.9316 17.7771
CA -6.16201 -35.9638 80.1032
CA -15.3595 -41.0437 50.1114
CA -30.7257 -15.247 68.2875
CA -25.5728 -11.8286 48.8236
CA -15.9008 -13.8643 41.8808
CA -17.6647 -10.3878 64.0152
CA -42.2731 -37.1036 76.3095
CA -30.4884 -23.4908 53.219
CA -31.7513 -20.8023 43.2041
CA -6.07883 -40.1784 70.4997
CA -12.3489 -40.0373 51.3819
CA -30.0653 -33.8328 59.4526
CA -1.98206 -25.0647 51.5797
CA -35.7613 -43.0767 51.0716
CA -12.3025 -7.54609 4.29666
CA -25.8053 -42.1812 42.5111
CA -17.7231 -44.3363 77.5778
CA -13.4645 -54.0839 72.2595
CA -8.55496 -41.0885 78.0784
CA -4.27957 -37.9753 57.6504
CA -18.9463 -41.4007 59.1905
CA -30.5841 -38.4696 77.1957
CA -11.5928 -46.2758 57.5766
CA -22.2642 -22.1792 81.6118
CA -3.98692 -25.359 22.3758
CA -19.5524 -9.45561 55.9733
CA -39.5737 -41.7159 48.7116
CA -13.7215 -23.1801 53.3119
CA -18.0342 -48.2498 78.6164
CA 2.85417 -37.6881 39.4437
CA -14.0642 -15.8161 53.2057
CA -33.3101 -32.9815 54.5743
CA -28.7936 -43.4149 40.7505
CA -13.42 -11.1249 60.2433
CA -27.8638 -51.2337 44.4697
CA -15.8352 -28.7626 51.3461
CA -21.3583 -28.4016 55.4946
CA -10.1525 -12.9292 5.63327
CA -24.1154 -21.2646 83.0501
CA 0.125028 -18.507 36.2578
CA -22.3852 -13.9903 43.6741
CA 3.5523 -31.0965 50.4688
CA -11.262 -51.3698 44.6065
CA -11.3881 -25.3758 62.8345
CA -10.4383 -45.0462 60.0152
CA -37.1419 -30.6507 67.5243
CA -38.7059 -28.0703 44.1859
CA -32.1125 -18.1821 65.6083
CA -12.4634 -29.328 85.4773
CA -42.6601 -28.8112 41.8595
CA -42.7506 -29.9865 46.1733
CA -31.4751 -46.1666 52.7347
CA -18.0266 -25.8105 81.1856
CA -35.0784 -35.2956 43.0432
CA -34.8445 -40.8484 73.7599
CA -29.2577 -22.502 73.1092
CA -9.01747 -44.6114 69.6799
CA -36.5091 -45.2881 75.3797
CA -11.4773 -30.9651 34.7401
CA -10.8373 -15.2697 57.587
CA -27.3123 -26.0936 76.8406
CA -13.6786 -29.7715 61.3035
CA -24.8583 -7.58398 35.9026
CA -21.2555 -10.8939 47.7977
CA -3.39159 -42.7856 38.1435
CA -8.95163 -23.2342 59.1237
CA -6.71742 -30.2149 51.8401
CA 0.817358 -27.5345 49.1853
CA -26.0339 -41.6329 71.1746
CA -15.3355 -12.0748 6.30987
CA -10.2996 -37.9372 46.1049
CA 6.89196 -16.0111 55.8916
CA -22.5382 -22.8844 66.5358
CA -32.8448 -24.7341 59.6487
CA -17.5521 -27.5329 37.5185
CA -6.54546 -22.3974 63.0517
CA -26.2843 -13.5209 48.3434
CA -2.22181 -19.6134 32.157
CA -8.9738 -14.8409 9.02852
CA -27.0343 -30.4868 33.4837
CA -36.4101 -29.4424 40.1353
CA -16.2574 -53.0878 75.1254
CA -14.5039 -17.4821 54.8254
CA -22.4793 -10.8092 39.134
CA -28.4644 -14.5264 62.8686
CA -33.2911 -20.4131 39.9649
CA -22.5296 -21.0178 37.0113
CA -23.6778 -34.6419 49.0149
CA -8.44083 -34.9819 70.6438
CA -36.3578 -21.6671 50.8908
CA -27.2693 -36.756 61.0307
CA -25.5996 -32.8743 38.7604
CA -25.8435 -24.0991 33.3899
CA -25.2787 -40.0835 48.4188
CA -16.0097 -48.1513 58.1382
CA -6.8759 -37.8322 43.1682
CA -9.58018 -37.1053 63.1475
CA 2.56948 -24.5515 50.2145
CA -26.959 -9.49595 38.7933
CA -28.5219 -29.7084 32.5668
CA -41.5146 -36.4617 47.4418
CA -8.10642 -45.9336 82.1394
CA -34.3877 -17.1201 44.5979
CA -23.9644 -49.628 49.9357
CA -25.2184 -36.4816 31.9311
CA -9.53437 -36.3069 67.9422
CA -29.3316 -26.347 33.5001
CA -30.1375 -49.7907 51.7491
CA -22.6557 -22.247 31.148
CA -21.9642 -31.5326 43.1767
CA -24.6821 -15.1682 46.8875
CA -43.2829 -32.3913 66.8815
CA -26.7559 -45.3655 69.8923
CA -17.7457 -12.3756 42.4052
CA -40.0737 -30.4979 47.3444
CA -7.38796 -50.0778 73.9093
CA -18.6753 -29.4031 63.0782
CA -24.4194 -36.6391 33.5959
CA -37.0809 -19.8963 63.1683
CA -16.0403 -19.287 36.1948
CA -9.93449 -32.2234 45.2102
CA -12.7535 -34.5441 55.4901
CA -40.3327 -27.8832 42.5034
CA -31.1843 -22.0735 60.0474
CA -25.5582 -43.0501 52.9988
CA -27.0534 -41.8631 47.8524
CA -14.2043 -50.6063 47.7264
CA -7.26964 -30.9081 83.0526
CA -32.2226 -32.7416 49.5704
CA -9.65855 -49.7311 69.301
CA -37.6846 -27.4802 38.3858
CA -10.4355 -34.9198 40.6811
CA -5.97201 -28.5943 42.4498
CA -10.6975 -31.0238 43.2245
CA -36.7619 -32.6354 51.7199
CA -21.9144 -49.2576 77.1689
CA -37.108 -39.2053 70.1564
CA -39.0823 -42.3542 72.0571
CA -28.9988 -35.7407 54.0466
CA -22.3101 -34.2251 47.594
CA -22.9367 -21.1696 54.1399
CA -29.0974 -11.6495 63.481
CA -17.4339 -44.3772 69.395
CA -3.67879 -21.4299 32.3521
CA -8.37703 -25.8101 61.9677
CA -1.71132 -26.004 25.0073
CA -6.97435 -19.0968 41.9014
CA -16.2219 -32.8562 37.6222
CA -8.79813 -43.609 53.8264
CA -13.1893 -24.5994 82.1348
CA -22.5247 -48.2182 54.1733
CA -35.9298 -21.5156 63.6517
CA -34.3638 -25.5366 61.387
CA -30.739 -24.8158 35.3767
CA -11.3794 -29.5555 64.3584
CA -2.39176 -26.8647 52.6015
CA -20.9863 -36.4724 61.9613
CA -34.5162 -35.4996 47.3108
CA -10.6022 -36.3861 70.1722
CA -10.7966 -34.9475 83.4735
CA -5.75106 -14.6325 6.82769
CA -24.8051 -14.1833 68.1777
CA -8.80374 -30.6749 33.3706
CA -4.58266 -24.1 66.747
CA -5.82421 -27.0214 39.4811
CA -1.7275 -21.4798 23.4751
CA -23.9308 -25.8376 64.2139
CA -6.88848 -24.0098 24.1423
CA 3.43245 -37.7523 33.7453
CA -30.8274 -32.2584 60.1135
CA -24.1471 -50.1332 47.769
CA -7.13611 -22.679 59.1689
CA -22.0119 -28.492 40.5264
CA -6.74108 -34.8421 35.7104
CA -3.29319 -26.3763 14.8477
CA -29.3209 -27.909 30.6235
CA -1.80053 -23.4932 47.2979
CA -0.240165 -9.38495 10.1633
CA -5.24209 -26.8065 42.5322
CA 1.04046 -40.0261 59.0682
CA -35.2476 -28.4141 66.9467
CA -21.6305 -15.1238 63.8056
CA -27.8231 -36.5905 50.0744
CA -27.5069 -19.9068 38.8777
CA -24.2309 -7.94071 52.0798
CA -27.3187 -38.3602 76.9754
CA -5.91194 -44.4539 69.9981
CA -20.1758 -39.4577 30.2528
CA -38.5331 -25.6735 61.2499
CA -15.0713 -50.4632 54.03
CA -11.6062 -26.3563 54.27
CA -13.7621 -10.2742 33.8349
CA -32.1545 -42.1832 80.9421
CA -33.5423 -33.1621 77.2259
CA -31.5322 -38.4817 55.309
CA -17.9114 -46.6097 64.8944
CA -18.1559 -38.8846 60.1898
CA -15.0401 -37.1185 39.658
CA -2.50305 -42.3133 84.8156
CA -32.3198 -39.0615 43.997
CA -11.1963 -12.3335 1.90335
CA -18.9833 -8.73142 37.5599
CA -24.548 -17.714 68.4874
CA -11.3196 -39.7367 82.0599
CA -9.37923 -40.6059 87.5636
CA -18.0692 -31.9631 39.9731
CA -5.36656 -12.9877 6.13074
CA -5.18582 -13.8362 12.6348
CA 6.66343 -22.4495 52.3828
CA -24.1107 -47.0028 73.364
CA -32.5734 -22.4715 70.7934
CA -4.63382 -21.1825 61.1602
CA -5.94128 -40.62 52.1265
CA 10.7654 -31.6869 52.8743
CA -24.7442 -41.738 74.4937
CA -17.8673 -31.3662 36.4732
CA -17.4229 -43.1955 73.0453
CA -2.7929 -39.2744 54.8437
CA -11.4505 -15.3606 66.0642
CA -19.7028 -25.5826 51.1372
CA -25.4233 -42.7321 72.7342
CA -14.5038 -39.6143 31.9786
CA -31.5876 -50.8222 70.126
CA -13.4212 -35.649 43.7907
CA -16.0586 -14.8379 57.6384
CA 0.763796 -40.2134 39.3835
CA -3.24039 -24.623 16.5378
CA -11.5551 -29.1535 62.2498
CA -7.22788 -40.4453 83.6308
CA -34.3017 -30.1702 40.2295
CA -17.4237 -39.4006 30.2436
CA -1.7287 -33.2791 42.6631
CA -40.9717 -30.3492 69.8422
CA -9.08453 -31.2563 51.4492
CA 1.49982 -38.715 34.9359
CA 6.76958 -34.1354 49.0476
CA -17.0569 -15.5174 67.5049
CA -7.58259 -38.6841 55.3808
CA -14.187 -9.14921 39.2205
CA -22.1221 -45.6322 49.1635
CA -5.73822 -26.1154 20.31
CA -10.931 -31.1142 54.9694
CA -11.8614 -7.9625 62.9025
CA -1.4688 -39.465 35.8341
CA 5.82585 -31.408 53.5735
CA -13.7945 -9.38854 2.42798
CA -27.9593 -26.1957 52.9045
CA -24.7322 -8.76274 58.3606
CA -34.7929 -43.1689 76.085
CA -24.6766 -9.24108 46.0236
CA -21.4513 -44.6765 40.2772
CA -9.54892 -42.6206 32.8342
CA -15.0619 -42.0233 33.836
CA -16.1577 -42.2825 78.7096
CA -13.352 -49.6964 40.1844
CA -12.3396 -51.0256 54.8258
CA -11.3401 -27.1861 42.1216
CA -36.8721 -44.5182 70.8935
CA -4.73249 -36.6514 70.5713
CA -14.2581 -18.8921 35.2544
CA -39.0961 -23.6969 41.1289
CA -29.4951 -20.3964 43.7329
CA -22.6036 -31.5995 47.1772
CA -34.3665 -30.4078 49.8035
CA -15.5243 -39.3127 71.3411
CA -24.1545 -46.7739 77.1545
CA -0.188344 -26.5676 50.5417
CA -1.39487 -39.2055 33.9084
CA -28.5893 -9.76669 44.8408
CA -24.1016 -35.0094 57.3554
