489

CA -18.6294 -33.4122 61.73
CA -35.5949 -28.9559 67.2324
CA -11.8978 -41.6047 49.8474
CA -15.1155 -44.2118 75.2335
CA -38.3435 -24.344 43.7845
CA -16.8005 -30.0739 63.5984
CA -34.5941 -37.2231 76.281
CA -28.1628 -34.2373 31.7448
CA -34.8508 -20.225 46.2984
CA -45.1493 -27.2664 55.724
CA -5.58983 -25.3914 26.744
CA -25.9368 -32.8904 33.2072
CA -22.6828 -22.8844 68.6671
CA -24.4686 -23.6267 61.9647
CA -35.2152 -42.6304 73.5953
CA -19.397 -34.1961 53.4817
CA -15.8043 -43.1388 61.0229
CA 1.56682 -15.6021 52.0166
CA -15.9274 -39.5353 78.6271
CA -27.4462 -41.0015 57.7095
CA -4.4639 -17.6553 32.5439
CA -32.1568 -24.9618 48.4849
CA -41.3995 -36.1413 43.6633
CA -14.3994 -48.3092 70.4766
CA -27.6368 -14.5597 65.4766
CA -25.6943 -30.7624 42.3604
CA -19.8459 -47.8102 80.9939
CA -29.0135 -61.5819 54.4618
CA -5.06042 -23.0803 21.0621
CA -12.2996 -12.4194 6.29506
CA -33.7402 -32.5543 50.4846
CA -10.5073 -42.5137 91.4923
CA -31.1209 -20.4322 33.8015
CA -25.8773 -35.4686 74.0085
CA -2.58255 -50.6195 63.5768
CA -31.7971 -30.4338 70.0312
CA -22.6269 -31.2702 27.3733
CA -27.9337 -19.9384 71.2422
CA -28.4802 -24.4954 53.7394
CA -15.3423 -43.8966 73.1213
CA -20.4305 -27.1046 57.6388
CA -9.74378 -49.545 50.03
CA -23.6836 -44.4967 48.527
CA -40.2878 -30.8387 56.5708
CA -26.6945 -30.8857 29.4121
CA -27.8482 -39.0631 46.3289
CA 2.44163 -35.5128 52.4028
CA -28.3825 -12.9712 57.2847
CA -31.7771 -32.657 41.4412
CA -32.2553 -19.2462 54.6765
CA -23.1129 -35.4417 50.7444
CA -32.4934 -54.0913 51.3194
CA -21.8096 -25.3716 35.2247
CA -12.2204 -17.4826 32.6821
CA -20.1199 -36.8301 51.0938
CA -28.0551 -33.7141 28.0242
CA -29.2561 -34.7334 75.6204
CA -4.26252 -36.7235 52.6466
CA -35.6032 -31.5268 71.7338
CA -17.9963 -17.9867 63.5674
CA -5.47968 -16.6477 64.4682
CA -18.9902 -49.1188 45.098
CA -31.745 -34.4425 50.4898
CA -36.464 -47.8332 57.2627
CA 6.01292 -18.7648 51.0902
CA -32.1226 -37.8586 61.661
CA -27.0959 -27.6938 59.9291
CA -6.60421 -44.4653 55.7064
CA -19.0416 -11.7886 41.1553
CA -4.39072 -10.7737 15.5571
CA -11.6256 -22.2 33.4068
CA -24.0275 -28.7106 27.046
CA -7.40374 -15.0017 2.49366
CA -44.667 -31.1629 42.1997
CA -27.3814 -32.0188 34.7564
CA -11.7231 -41.3619 38.0269
CA -5.48551 -31.6795 82.9914
CA -15.6524 -40.7484 40.626
CA -31.1943 -51.5131 51.0654
CA -1.20815 -26.9656 41.5408
CA -11.6521 -22.6356 82.1272
CA -32.4648 -27.4327 69.7215
CA -22.9966 -29.2316 53.951
CA -3.96302 -8.49918 8.87347
CA -15.4944 -22.8942 53.1751
CA -9.98101 -13.9783 2.79169
CA -24.5124 -26.3977 26.2792
CA -19.7986 -37.3354 33.9812
CA -24.487 -14.0438 48.2842
CA -31.0751 -43.3015 74.352
CA -17.1356 -37.821 41.4562
CA -29.1149 -40.668 69.6042
CA -10.3988 -48.7884 62.5881
CA -44.0367 -32.114 56.6209
CA -35.7388 -50.3406 50.2862
CA -33.3284 -34.3612 40.3948
CA -7.27279 -42.5286 69.1592
CA -38.3362 -38.6042 71.2218
CA -15.5819 -44.2844 50.5553
CA -19.2916 -11.2735 57.227
CA 1.40442 -31.0108 47.8278
CA -27.4126 -39.2145 65.0963
CA -17.3987 -40.037 77.024
CA -7.13407 -35.6412 48.4634
CA -9.87907 -40.3948 79.149
CA -36.3527 -30.3686 52.7147
CA -22.1362 -21.6526 39.7223
CA -16.2713 -32.1827 41.473
CA -12.8362 -46.5347 45.0143
CA -32.9299 -21.9181 44.9023
CA -19.9254 -39.0654 58.0119
CA -20.6989 -25.0872 56.4561
CA -1.02656 -22.2191 45.1467
CA -21.9822 -46.6001 75.6514
CA -32.1142 -39.3415 70.6988
CA -18.9447 -21.7872 45.4706
CA -14.0281 -44.5279 41.1801
CA -26.4828 -32.7639 62.7078
CA -6.58764 -22.3547 47.5188
CA -5.16389 -5.68307 8.36623
CA -24.0599 -25.8091 31.0522
CA -24.4997 -10.6211 57.4602
CA -9.17732 -35.9796 35.0793
CA -29.5363 -56.9668 55.3906
CA -30.8858 -37.3367 80.1494
CA -15.3291 -34.3861 42.6153
CA -32.5389 -48.2036 48.6685
CA -27.8503 -15.1357 42.7949
CA -28.4227 -23.058 29.4114
CA -2.12218 -33.0733 51.6081
CA -15.9732 -24.7947 56.5834
CA -3.9233 -41.1729 79.0967
CA -8.0882 -41.274 67.8635
CA -33.1502 -33.6822 56.9397
CA -32.015 -37.6404 42.7093
CA -18.8192 -31.3448 55.6792
CA -21.0775 -30.1987 40.6592
CA -20.6988 -18.8494 69.7656
CA -17.9342 -48.864 80.7174
CA -24.5789 -21.0293 37.766
CA -6.85134 -17.3232 55.9054
CA -19.5229 -15.6951 45.7795
CA -24.0901 -13.7177 44.984
CA -0.224431 -23.9825 53.1578
CA -12.857 -40.3986 76.6926
CA -18.1978 -21.5167 55.8282
CA -33.8635 -46.6354 70.6271
CA -0.719713 -19.5782 15.2223
CA -34.652 -23.4993 64.5647
CA -30.7164 -14.8962 38.1755
CA -3.61845 -13.9205 15.5469
CA -16.7362 -25.5979 47.2042
CA -11.3194 -22.5233 55.3909
CA -29.6766 -33.7115 42.5416
CA -7.54611 -31.5585 35.8358
CA -0.48462 -22.5353 18.9526
CA -12.0175 -30.8622 61.3962
CA -23.9729 -25.3158 56.1079
CA -12.189 -37.2247 65.6712
CA -2.76755 -18.2457 10.1355
CA -9.02552 -24.3886 41.3582
CA -32.244 -13.1716 48.2811
CA -33.0431 -28.7392 36.1161
CA 3.70352 -13.6637 54.5181
CA -7.93227 -52.973 52.0123
CA -16.304 -31.5389 59.6221
CA -19.0161 -37.214 42.1495
CA -14.5537 -32.0845 60.1845
CA -32.967 -22.5742 51.1017
CA -29.1522 -22.7827 80.8935
CA -9.16337 -50.4461 61.973
CA -35.6926 -15.6047 46.4092
CA -28.9577 -21.9482 68.0947
CA -15.6905 -16.0162 35.9994
CA -26.5573 -19.3581 40.3425
CA 2.9287 -21.3933 49.7989
CA -41.9831 -35.9488 71.3374
CA -30.3839 -34.6842 32.142
CA -29.0556 -25.0678 73.1673
CA -29.5775 -29.6131 52.4905
CA -3.31219 -34.913 51.0356
CA -21.5435 -38.2542 31.004
CA -20.9093 -41.3022 40.0397
CA -20.5803 -47.1873 82.7109
CA -9.64604 -33.735 86.2632
CA -20.4884 -23.8552 35.2915
CA -30.4698 -53.331 53.387
CA -31.1366 -17.211 40.6975
CA -22.8354 -9.78925 56.8488
CA -35.94 -19.6276 50.9873
CA -22.5181 -36.8911 36.574
CA 0.158792 -25.7939 16.0823
CA -11.1133 -38.1277 33.4718
CA -23.7635 -13.5602 42.9087
CA -3.52567 -40.5136 35.2876
CA -21.5867 -43.4315 79.3828
CA -15.624 -33.0533 57.6938
CA -0.958146 -17.1555 64.2015
CA -37.3136 -20.8204 46.1336
CA -31.6434 -28.3318 62.7454
CA -0.189392 -25.7199 47.1439
CA -16.3531 -22.7544 37.2317
CA -23.8856 -19.8094 51.9675
CA 5.1023 -31.4169 51.7167
CA -25.6686 -23.5823 35.4559
CA -5.18091 -38.5691 39.5173
CA -22.1835 -41.9411 62.8905
CA -14.6615 -23.3824 36.7121
CA -33.8624 -52.9385 48.2693
CA 1.41204 -30.91 42.5112
CA -14.6578 -34.8218 52.1226
CA -41.549 -24.4333 50.3125
CA -32.5472 -26.5376 68.0507
CA -23.1413 -48.6467 78.4962
CA -7.60019 -35.1413 36.5768
CA -8.26388 -29.5242 36.662
CA -8.39509 -43.796 77.6402
CA -5.75044 -27.1547 53.6354
CA -6.01261 -23.9316 17.7771
CA -6.16201 -35.9638 80.1032
CA -15.1346 -47.4602 76.0018
CA -21.8799 -46.8437 78.9465
CA -10.1191 -27.4302 53.1173
CA -9.81492 -23.0615 62.8309
CA -34.3546 -34.9077 44.785
CA -23.837 -5.22017 36.4456
CA -1.22155 -30.2513 38.5427
CA -9.95869 -41.4451 55.4544
CA -26.4693 -10.0001 56.213
CA -8.7329 -42.5419 34.8919
CA -28.6429 -40.5587 65.3753
CA 2.29644 -12.2396 58.8159
CA -35.7613 -43.0767 51.0716
CA -12.3025 -7.54609 4.29666
CA -25.8053 -42.1812 42.5111
CA -17.7231 -44.3363 77.5778
CA -18.08 -37.7463 29.5638
CA -32.1765 -52.4458 56.6503
CA -7.48653 -37.8468 75.6132
CA -18.3975 -25.6053 49.5014
CA -40.2571 -18.1706 57.4936
CA -11.5928 -46.2758 57.5766
CA -22.2642 -22.1792 81.6118
CA -10.4362 -16.7849 35.9542
CA -40.1576 -26.0776 42.4022
CA -39.5737 -41.7159 48.7116
CA -41.836 -43.3544 76.8255
CA -29.2409 -15.407 64.967
CA -24.2237 -14.4955 60.0144
CA -28.9993 -24.2158 49.7226
CA -38.398 -27.8802 74.2799
CA -28.7936 -43.4149 40.7505
CA -13.42 -11.1249 60.2433
CA -10.8021 -50.3378 64.4366
CA -15.8352 -28.7626 51.3461
CA -27.0472 -26.4921 38.0441
CA -10.1525 -12.9292 5.63327
CA -39.0818 -23.3661 51.4633
CA -29.3753 -6.81584 41.9766
CA -25.9202 -31.0229 40.4128
CA 3.5523 -31.0965 50.4688
CA -33.977 -38.373 49.1909
CA -40.9574 -27.3941 37.0125
CA -10.4383 -45.0462 60.0152
CA -31.7852 -27.8376 74.1503
CA 2.26384 -23.0112 49.2769
CA -35.5526 -23.4968 73.8553
CA -9.4855 -37.19 67.9188
CA -21.0126 -45.8426 70.9109
CA -42.7506 -29.9865 46.1733
CA -23.8666 -18.7427 61.1359
CA -18.0266 -25.8105 81.1856
CA -35.0784 -35.2956 43.0432
CA -34.8445 -40.8484 73.7599
CA -29.2577 -22.502 73.1092
CA -21.3793 -41.9644 69.6668
CA -36.5091 -45.2881 75.3797
CA -11.4773 -30.9651 34.7401
CA -11.349 -30.1366 31.7808
CA 3.03356 -32.7557 54.9832
CA -20.775 -44.0152 69.0818
CA -24.8583 -7.58398 35.9026
CA -21.2555 -10.8939 47.7977
CA -30.7955 -20.8813 37.1849
CA -8.07202 -17.1763 40.4222
CA -6.71742 -30.2149 51.8401
CA -11.586 -12.6919 54.4862
CA -26.0339 -41.6329 71.1746
CA -15.3355 -12.0748 6.30987
CA -10.2996 -37.9372 46.1049
CA 6.89196 -16.0111 55.8916
CA -22.8618 -27.5256 24.3685
CA -18.6603 -11.1976 53.9143
CA -17.5521 -27.5329 37.5185
CA -6.54546 -22.3974 63.0517
CA -26.2843 -13.5209 48.3434
CA -8.16631 -40.8216 77.6075
CA -8.9738 -14.8409 9.02852
CA -4.39976 -43.6603 54.9145
CA -7.18479 -47.6533 52.9432
CA -38.4155 -27.5979 54.6034
CA -27.9785 -19.7152 73.834
CA -22.6597 -10.0435 42.6533
CA -28.4644 -14.5264 62.8686
CA -5.3094 -55.4433 54.292
CA -42.5504 -25.3494 44.7702
CA -9.51682 -19.2358 63.939
CA -8.44083 -34.9819 70.6438
CA -6.10932 -21.0319 64.4695
CA -27.2693 -36.756 61.0307
CA -25.5996 -32.8743 38.7604
CA -30.5927 -15.4427 49.6933
CA -25.2787 -40.0835 48.4188
CA -37.1741 -44.3856 58.239
CA -6.8759 -37.8322 43.1682
CA -9.58018 -37.1053 63.1475
CA 2.56948 -24.5515 50.2145
CA -26.959 -9.49595 38.7933
CA -12.9211 -45.485 42.4669
CA -19.9223 -39.0699 53.9715
CA -29.0525 -20.7824 51.7693
CA -13.0246 -11.3375 57.667
CA -20.9619 -21.5991 46.8516
CA -25.2184 -36.4816 31.9311
CA -6.35729 -17.9926 45.9669
CA -28.7328 -52.4225 49.1393
CA -30.1375 -49.7907 51.7491
CA -22.6557 -22.247 31.148
CA -21.9642 -31.5326 43.1767
CA -8.90737 -38.3605 79.3927
CA -3.09278 -36.9255 37.9018
CA -9.3239 -15.195 36.163
CA -17.7457 -12.3756 42.4052
CA -40.0737 -30.4979 47.3444
CA -41.0078 -46.4486 72.5965
CA -29.1407 -32.9495 64.4138
CA -24.4194 -36.6391 33.5959
CA -14.8583 -34.2237 33.8866
CA -16.0403 -19.287 36.1948
CA -9.93449 -32.2234 45.2102
CA -29.6547 -40.6856 49.7394
CA -40.3327 -27.8832 42.5034
CA -26.4245 -13.6452 57.8679
CA -25.5582 -43.0501 52.9988
CA -27.0534 -41.8631 47.8524
CA -33.6066 -49.223 56.5177
CA -7.26964 -30.9081 83.0526
CA -8.14897 -21.1854 59.6532
CA -9.65855 -49.7311 69.301
CA -37.6846 -27.4802 38.3858
CA -10.2261 -49.5749 53.4267
CA -5.97201 -28.5943 42.4498
CA -41.7388 -28.5287 48.2048
CA -15.7792 -44.6748 81.9652
CA -21.9144 -49.2576 77.1689
CA -18.9723 -35.8982 52.5871
CA -39.0823 -42.3542 72.0571
CA -28.9988 -35.7407 54.0466
CA -22.3101 -34.2251 47.594
CA -16.968 -15.799 56.0046
CA -36.4338 -20.7459 43.7772
CA -17.4339 -44.3772 69.395
CA -3.67879 -21.4299 32.3521
CA -19.1349 -7.15936 51.3886
CA -7.89478 -25.7268 21.015
CA -9.5941 -19.0072 30.5029
CA -21.7984 -16.1658 63.4301
CA -8.79813 -43.609 53.8264
CA -13.1893 -24.5994 82.1348
CA -27.3883 -32.7028 74.9093
CA -25.886 -23.3019 78.7733
CA -26.727 -29.8957 77.2641
CA -7.05961 -34.7819 42.8167
CA -38.298 -17.1516 57.4426
CA -14.229 -43.7476 51.9053
CA -3.57492 -18.2238 48.7061
CA -26.7071 -52.9135 46.2761
CA -9.00736 -27.7148 33.6821
CA -19.7571 -46.0441 60.5891
CA -5.75106 -14.6325 6.82769
CA -24.8051 -14.1833 68.1777
CA -8.80374 -30.6749 33.3706
CA -20.0689 -35.9386 32.2671
CA -5.82421 -27.0214 39.4811
CA -38.5928 -29.614 71.173
CA -30.948 -26.9822 76.6884
CA -12.4491 -40.5858 68.1852
CA -6.83211 -49.9906 64.774
CA -30.8274 -32.2584 60.1135
CA -24.1471 -50.1332 47.769
CA -32.1892 -29.6374 29.281
CA -22.0119 -28.492 40.5264
CA 4.64482 -37.5628 50.221
CA -3.29319 -26.3763 14.8477
CA -29.3209 -27.909 30.6235
CA -1.80053 -23.4932 47.2979
CA -21.1755 -30.2545 63.366
CA -5.24209 -26.8065 42.5322
CA -39.1486 -42.8108 55.9057
CA -25.3571 -25.6261 29.6437
CA -2.16114 -25.6539 46.5064
CA -39.7266 -46.0339 52.9867
CA -27.5069 -19.9068 38.8777
CA -24.2309 -7.94071 52.0798
CA 2.91848 -32.151 47.4856
CA -5.91194 -44.4539 69.9981
CA -20.1758 -39.4577 30.2528
CA -19.416 -45.2722 41.5802
CA -27.1611 -27.6778 76.6995
CA -11.6062 -26.3563 54.27
CA -13.7621 -10.2742 33.8349
CA -10.5621 -30.4567 70.2009
CA -37.8963 -22.607 77.2887
CA -40.6248 -32.4059 42.9267
CA -1.82351 -21.2449 26.6162
CA -18.1559 -38.8846 60.1898
CA -19.5814 -37.0202 79.9508
CA -2.50305 -42.3133 84.8156
CA -14.0766 -23.3942 45.3338
CA -11.1963 -12.3335 1.90335
CA -10.5382 -17.4987 30.9673
CA -11.3513 -38.9226 68.0038
CA -11.3196 -39.7367 82.0599
CA -9.37923 -40.6059 87.5636
CA -3.99714 -25.1087 56.1239
CA -5.36656 -12.9877 6.13074
CA -5.18582 -13.8362 12.6348
CA -6.99938 -26.5927 38.0826
CA -24.1107 -47.0028 73.364
CA -36.8557 -53.8238 47.586
CA -11.1148 -33.7135 59.9912
CA -5.94128 -40.62 52.1265
CA -13.8388 -16.6243 36.9466
CA -13.1172 -21.233 61.1897
CA -24.1763 -25.2491 28.1382
CA -4.88856 -20.2982 24.0845
CA -2.7929 -39.2744 54.8437
CA -6.83525 -37.703 38.5123
CA -19.7028 -25.5826 51.1372
CA -25.4233 -42.7321 72.7342
CA -15.2785 -21.1551 57.9587
CA -31.5876 -50.8222 70.126
CA -41.0655 -20.288 54.9151
CA -16.0586 -14.8379 57.6384
CA -13.7152 -11.1006 7.08908
CA -3.24039 -24.623 16.5378
CA -10.7919 -46.2868 47.9063
CA -7.22788 -40.4453 83.6308
CA -9.60453 -40.7934 33.7246
CA -17.4237 -39.4006 30.2436
CA -14.2197 -50.5112 58.8673
CA -40.9717 -30.3492 69.8422
CA -14.8217 -7.57609 42.1465
CA 1.49982 -38.715 34.9359
CA 6.76958 -34.1354 49.0476
CA -17.0569 -15.5174 67.5049
CA -15.1851 -45.3669 59.7333
CA -14.187 -9.14921 39.2205
CA -22.1221 -45.6322 49.1635
CA -44.1403 -41.1628 80.4593
CA -10.931 -31.1142 54.9694
CA -11.8614 -7.9625 62.9025
CA -1.4688 -39.465 35.8341
CA -27.7387 -31.4221 54.278
CA -13.7945 -9.38854 2.42798
CA -27.9593 -26.1957 52.9045
CA -24.7322 -8.76274 58.3606
CA -32.7071 -27.5659 57.9092
CA -10.1736 -32.4678 65.0364
CA -42.6844 -32.7698 53.4068
CA -9.54892 -42.6206 32.8342
CA -33.8996 -30.9906 44.892
CA -10.6323 -26.0069 64.7851
CA -22.9276 -40.239 45.1352
CA -12.3396 -51.0256 54.8258
CA -11.3401 -27.1861 42.1216
CA -34.5238 -24.4541 42.3607
CA -10.159 -21.4508 52.8997
CA -14.2581 -18.8921 35.2544
CA -20.7307 -7.30263 48.5142
CA -30.3742 -35.6045 60.9572
CA -19.4807 -43.8528 39.3069
CA -34.3665 -30.4078 49.8035
CA -40.4956 -47.4476 52.0388
CA -24.1545 -46.7739 77.1545
CA -20.0283 -43.0358 64.8809
CA -1.39487 -39.2055 33.9084
CA -8.93589 -22.1597 26.8941
CA -21.686 -39.6214 43.8283
