489

CA -26.3949 -32.6862 47.5252
CA -25.1217 -19.4081 42.3271
CA -14.0391 -42.4453 52.7532
CA -19.8825 -9.62635 52.6625
CA -30.7485 -13.2542 46.475
CA -37.221 -17.4966 54.233
CA -27.7523 -28.6502 70.0737
CA -17.013 -16.0602 37.5981
CA -22.8325 -43.9604 53.4505
CA -20.8039 -42.7209 42.4175
CA -23.7514 -22.824 41.7998
CA -6.27736 -52.7031 57.6723
CA -22.9946 -15.4823 61.5494
CA -32.3568 -35.0391 28.696
CA -5.3874 -37.2503 47.283
CA -41.5546 -43.7343 71.9846
CA -15.6147 -28.0422 56.0448
CA -32.6799 -13.6343 61.385
CA -11.9716 -22.0182 53.75
CA -27.4462 -41.0015 57.7095
CA -9.81441 -40.4892 79.5603
CA -30.929 -35.1292 72.0828
CA -4.52854 -45.1086 40.1848
CA -25.7601 -28.3248 26.8756
CA -31.4153 -40.6622 52.1416
CA -28.6154 -21.7611 30.8751
CA -30.5745 -35.683 36.2176
CA -22.4414 -9.09558 47.4116
CA -5.06042 -23.0803 21.0621
CA -9.29406 -43.5155 40.8517
CA -45.4567 -40.2658 75.0093
CA -32.979 -25.7402 39.3167
CA -19.1988 -13.6861 43.9368
CA -43.7805 -26.0113 52.4889
CA -22.8816 -39.4608 67.4217
CA -15.7303 -29.082 42.2477
CA -6.47355 -20.9 29.2649
CA -40.1232 -18.4008 54.0072
CA -28.4802 -24.4954 53.7394
CA -36.8742 -27.067 39.281
CA -26.0985 -22.1964 44.7564
CA -37.4772 -13.4141 51.2313
CA -43.4912 -26.0921 47.3799
CA -34.2607 -27.175 48.1487
CA -3.8273 -43.2986 37.3627
CA -32.6979 -49.9525 54.2113
CA -23.9799 -43.7024 38.3819
CA -23.372 -25.9315 61.8661
CA -32.3914 -54.7739 52.5085
CA -22.8516 -48.2242 38.5579
CA -30.4297 -33.1453 25.8992
CA -20.4139 -36.8711 37.4665
CA -21.8368 -7.08021 38.6701
CA -39.9456 -15.7822 51.2881
CA -35.7191 -31.8189 60.4562
CA -19.0104 -34.9273 70.8481
CA -27.7232 -33.8974 68.9847
CA -16.8162 -32.3364 65.4911
CA -38.4965 -27.8449 57.589
CA -24.2782 -44.3385 71.9599
CA -17.685 -8.93196 37.0464
CA -23.1575 -21.8785 54.2863
CA -41.898 -43.8875 55.5513
CA -29.2325 -21.785 54.8318
CA -8.44147 -27.3824 50.2192
CA -26.5883 -20.1419 43.6695
CA -43.0109 -33.2643 69.7454
CA -46.9933 -46.3142 42.2032
CA -28.0493 -38.484 57.4463
CA -4.39072 -10.7737 15.5571
CA -5.05624 -40.6958 56.8147
CA -24.8043 -34.3674 43.1419
CA -30.7083 -32.4354 68.6185
CA -14.2781 -24.1167 40.4496
CA -13.6965 -10.7593 54.9299
CA -40.4062 -37.5883 52.6874
CA -27.4451 -53.6463 56.7996
CA -37.2702 -25.2089 74.4971
CA -34.4227 -30.879 58.8774
CA -17.8387 -40.8782 78.8183
CA -50.2995 -28.503 52.2166
CA -15.6355 -15.9569 52.2768
CA -4.55247 -39.7291 31.3526
CA -3.96302 -8.49918 8.87347
CA -32.1686 -13.1819 45.018
CA -9.98101 -13.9783 2.79169
CA -14.2658 -38.4383 57.3538
CA -7.63023 -18.545 55.2761
CA -25.4592 -11.2542 56.8148
CA -21.7037 -45.1854 42.988
CA -15.7355 -36.8143 39.1372
CA -35.5858 -26.7296 74.0468
CA -33.7642 -20.4924 51.0789
CA -45.6734 -21.7362 53.7063
CA -35.7388 -50.3406 50.2862
CA -28.5712 -33.0681 26.4105
CA -10.2946 -14.1012 47.0084
CA -39.3547 -22.0493 51.2572
CA -8.4764 -16.3905 43.0637
CA -32.2702 -15.3323 55.1438
CA -11.2025 -19.5726 47.3502
CA -13.8964 -31.2905 37.2456
CA -36.0826 -31.2469 45.168
CA -43.0658 -43.5513 53.7468
CA -37.3547 -27.0635 55.1761
CA -10.0035 -29.1281 65.9062
CA -14.6859 -11.2693 4.4265
CA -43.1301 -23.2436 48.3991
CA -39.9738 -26.2683 53.8248
CA -11.2201 -35.7544 54.3335
CA -6.708 -42.6338 42.9702
CA -22.1192 -37.0022 71.1228
CA -5.11896 -44.0544 38.5978
CA -0.00740058 -23.4615 57.7768
CA -45.8288 -45.644 43.7666
CA -40.1918 -32.3508 44.579
CA -20.822 -44.5477 67.9511
CA -39.9757 -16.7956 55.3496
CA -30.8274 -36.7112 68.9071
CA -5.16389 -5.68307 8.36623
CA -14.1386 -10.99 8.04093
CA -27.722 -12.3062 57.2926
CA -37.1354 -35.7106 46.4331
CA -17.1526 -12.0632 55.3293
CA -39.053 -45.0576 77.4428
CA -9.99409 -46.1317 40.5427
CA -22.7598 -60.9426 52.0431
CA -7.16376 -20.5409 54.2839
CA -29.5934 -19.4108 52.7773
CA -17.2681 -30.1372 41.5451
CA -8.28434 -24.0844 31.0975
CA -29.9419 -54.7291 55.41
CA -29.5496 -43.1742 49.0092
CA -26.4827 -57.6864 58.4467
CA -28.9304 -37.5922 32.6028
CA -13.3842 -30.0404 52.2083
CA -27.3846 -48.1422 68.3936
CA -4.10579 -20.9881 57.906
CA -8.39277 -36.5499 76.8272
CA -10.798 -27.0695 50.6275
CA -41.7517 -38.1253 79.4133
CA -36.7762 -31.9021 40.854
CA 0.884609 -26.6684 48.4766
CA -43.1998 -14.1711 47.778
CA -3.20923 -14.4153 6.88912
CA -42.4523 -26.7526 43.1564
CA -45.878 -26.1529 52.1613
CA -0.719713 -19.5782 15.2223
CA -25.7824 -46.6408 37.6148
CA -19.409 -29.8066 63.5792
CA -3.61845 -13.9205 15.5469
CA -30.4661 -33.4776 31.9556
CA -18.5651 -16.359 56.7877
CA -25.3369 -25.4112 32.7803
CA -34.48 -41.2487 64.9934
CA -0.48462 -22.5353 18.9526
CA -17.7937 -10.9648 1.87466
CA -34.0463 -44.5884 47.9195
CA -7.36287 -36.5232 33.337
CA -2.76755 -18.2457 10.1355
CA -40.8775 -27.006 55.8361
CA -20.1833 -25.2032 58.6035
CA -34.5661 -17.5652 36.0722
CA -43.3442 -47.5642 77.9608
CA -19.8807 -35.3367 67.0179
CA -0.813186 -39.5841 37.4662
CA -34.1653 -38.9587 44.8345
CA -2.42862 -21.8225 50.4877
CA -37.199 -14.342 58.2621
CA -31.9606 -40.8986 72.6587
CA -21.4945 -6.18257 41.4726
CA -11.5742 -34.8161 85.9995
CA -37.4211 -31.1576 70.8668
CA -27.4635 -17.5306 58.2996
CA -26.5573 -19.3581 40.3425
CA -22.5208 -45.0215 36.4246
CA -22.4452 -12.6704 58.849
CA -33.7253 -49.8333 49.8626
CA -10.1572 -44.4531 56.661
CA -12.7511 -2.38757 2.60023
CA -7.61272 -36.0814 58.682
CA -5.70517 -24.675 60.3598
CA -12.737 -19.1674 57.3726
CA -23.9435 -36.6241 54.8106
CA -19.1903 -41.0312 35.3323
CA -5.85998 -21.1083 20.5739
CA -8.44539 -28.3484 62.4681
CA -41.6043 -47.1541 50.9229
CA -29.4771 -19.117 63.9855
CA -18.5484 -42.4102 79.6688
CA -6.01362 -26.0024 36.1598
CA 0.158792 -25.7939 16.0823
CA -18.3721 -62.8849 50.8968
CA -27.1111 -26.0404 42.4411
CA -27.8587 -16.9722 37.3517
CA -13.4747 -47.2788 57.72
CA -16.8486 -17.5522 35.8643
CA -20.5784 -46.3114 74.4955
CA -13.3389 -27.7182 36.6684
CA -6.94291 -23.1268 20.9253
CA -3.68321 -19.7204 20.0781
CA -33.6773 -37.9827 74.8809
CA -13.0113 -35.5988 39.9875
CA -44.4396 -41.7913 44.1577
CA -12.9968 -44.9076 65.4354
CA -19.2232 -40.7707 46.5088
CA -44.8574 -20.8156 57.4944
CA -36.1651 -16.344 46.7905
CA -11.6262 -51.1761 66.9351
CA -32.2189 -29.9657 36.1676
CA -15.1228 -43.0772 79.0551
CA -28.3588 -19.1519 34.9047
CA -29.6462 -29.3972 51.258
CA 0.694912 -42.342 39.8907
CA -2.15099 -21.9383 54.0024
CA -16.1988 -28.2612 60.3379
CA -22.7384 -21.2135 39.4581
CA -19.9128 -9.00903 38.9771
CA -6.01261 -23.9316 17.7771
CA -13.7562 -18.465 36.729
CA -13.0605 -25.8494 52.5446
CA -3.74768 -26.1579 46.735
CA -1.5976 -34.4599 48.7577
CA -11.2767 -51.6192 58.8724
CA -24.4679 -30.0066 72.6364
CA -22.4798 -51.9247 80.9726
CA -32.6925 -30.0965 58.7815
CA -26.7405 -29.3268 72.1507
CA -39.2584 -38.611 74.0081
CA -30.8102 -17.3372 43.6275
CA -29.3695 -28.6129 49.2206
CA -6.94523 -33.7244 61.4553
CA -33.0119 -44.5662 72.6334
CA -12.3025 -7.54609 4.29666
CA -17.6995 -7.77578 42.4072
CA -33.8959 -17.6728 41.8738
CA -23.7667 -48.1301 40.7931
CA -28.4667 -40.0108 46.5371
CA -18.8098 -26.3451 38.7133
CA -20.8848 -18.0362 50.0139
CA -22.6771 -31.8944 64.9671
CA -40.4498 -29.4258 41.5362
CA -31.2421 -43.0117 64.1986
CA -18.743 -43.7169 83.6929
CA -19.1426 -49.4298 75.6414
CA -19.7435 -29.7245 35.1769
CA -30.789 -21.389 41.3531
CA -39.6988 -32.5127 67.2509
CA -6.97967 -38.2647 47.6803
CA -20.8989 -33.3708 48.9841
CA -6.78953 -25.5398 28.5522
CA -0.838227 -25.4602 40.8366
CA -31.7406 -17.0897 32.171
CA -47.069 -41.5265 74.2274
CA -26.9512 -22.8112 63.7921
CA -28.6979 -31.5424 71.5251
CA -0.939178 -16.109 12.2183
CA -45.5303 -36.3889 67.4233
CA -19.3622 -20.1869 54.687
CA -25.9202 -31.0229 40.4128
CA -24.3827 -49.5936 74.4026
CA -17.1455 -32.454 49.02
CA -6.79696 -27.6502 48.127
CA -8.14502 -24.0073 25.3513
CA -33.8941 -33.0697 24.3003
CA -6.16911 -24.315 31.8641
CA -39.369 -37.9203 43.9958
CA -41.7119 -40.7582 55.8902
CA -27.2341 -18.6442 32.114
CA -13.5145 -4.79371 2.02881
CA -44.9974 -21.7599 43.6631
CA -8.65763 -16.0776 26.9132
CA -3.465 -48.3684 38.5726
CA -19.1183 -30.4545 29.7425
CA -42.6942 -45.9683 50.0568
CA -22.6057 -53.0321 56.5769
CA -5.5611 -31.5956 35.4617
CA -8.65697 -17.7396 45.5278
CA -9.0845 -42.6057 43.879
CA -28.971 -31.2754 43.2179
CA -33.1953 -41.9881 76.1003
CA -23.2333 -54.2899 58.134
CA -34.9651 -30.8077 72.8279
CA -20.3561 -34.6313 42.6604
CA -42.4882 -41.6883 50.962
CA -13.4075 -40.3782 74.0284
CA -8.93189 -36.9052 36.2058
CA -36.2442 -17.8991 39.6875
CA -15.3355 -12.0748 6.30987
CA -12.6262 -14.9657 42.9041
CA -0.487028 -31.374 53.4629
CA -42.0945 -46.2708 77.7462
CA -27.6691 -28.0451 61.5515
CA -32.1551 -26.5449 79.8207
CA -31.9484 -32.1278 59.0907
CA -5.68721 -24.8994 34.4881
CA -6.98991 -31.9545 80.0195
CA -8.9738 -14.8409 9.02852
CA -13.8573 -46.6378 59.7341
CA -20.9866 -8.42517 41.5608
CA -22.0146 -50.7902 77.5981
CA -8.84195 -48.073 61.0759
CA -22.6597 -10.0435 42.6533
CA -15.5706 -23.2539 50.1902
CA -19.7703 -28.8727 45.7999
CA -14.8087 -27.0051 33.1464
CA -12.53 -19.9054 53.7159
CA -29.3517 -15.9556 62.8033
CA -10.1807 -37.6603 42.9647
CA -36.2923 -35.0255 31.1157
CA -28.6926 -29.6491 75.2461
CA -17.9992 -39.7693 37.9167
CA -9.80773 -23.0775 20.5126
CA -17.8429 -12.4596 34.9896
CA -21.3054 -36.7749 69.2067
CA -13.175 -14.0391 45.857
CA -30.8433 -16.0009 42.3161
CA -20.8742 -15.1792 56.816
CA -24.3768 -30.9876 51.8369
CA -23.13 -42.724 46.3749
CA -10.5077 -39.4493 41.2288
CA -14.0754 -26.0571 35.9975
CA -20.5387 -35.774 51.5706
CA -11.7712 -34.9598 75.4408
CA -12.9013 -40.3185 82.2586
CA -7.69105 -39.7963 29.0391
CA -18.0464 -18.9415 36.5432
CA -3.30712 -38.2145 33.2122
CA -30.9608 -39.9378 68.519
CA -11.6506 -35.6065 46.7826
CA -46.6918 -23.2811 48.5911
CA -7.32632 -38.5969 64.0817
CA -25.5592 -35.6546 34.6067
CA -41.8682 -24.9915 48.0803
CA -19.3269 -37.2467 59.9275
CA -21.375 -24.9439 63.2482
CA -42.6608 -46.6669 46.9238
CA -21.3218 -49.5159 33.0551
CA -33.1854 -46.8566 76.7266
CA -13.9889 -38.9466 50.6675
CA -4.44977 -21.0897 25.773
CA -9.82255 -42.4246 55.2026
CA -1.14741 -23.5946 51.3069
CA -32.1626 -42.7838 42.9846
CA -25.7461 -27.7287 44.3674
CA -9.72583 -35.9462 80.9521
CA -39.097 -37.6304 47.0062
CA -11.4604 -43.6366 59.3599
CA -28.5015 -35.0049 36.2733
CA -19.8588 -7.31269 46.0461
CA -17.725 -26.7777 32.3735
CA -5.97201 -28.5943 42.4498
CA -17.98 -45.5122 36.7545
CA -25.0393 -20.577 55.1449
CA -18.1079 -44.8846 38.6618
CA -32.5709 -21.4992 34.1549
CA -20.3765 -52.2395 80.2873
CA -24.821 -39.1026 34.6994
CA -29.4348 -12.7926 55.9434
CA -14.9472 -37.0095 49.5054
CA -22.5248 -40.1189 58.2455
CA -1.40347 -27.3895 53.0307
CA -18.5957 -17.0752 59.7622
CA -27.4203 -22.6173 35.507
CA -25.9437 -51.2305 37.2326
CA -24.4261 -16.6714 54.4173
CA -21.717 -56.739 53.9148
CA -32.8545 -31.7452 63.1855
CA -10.6401 -22.5768 35.2448
CA -13.9518 -47.2732 37.6061
CA -31.817 -26.9809 45.6116
CA -41.015 -46.6485 72.6072
CA -5.14687 -39.9776 62.655
CA -33.6865 -49.7137 74.0273
CA -41.1191 -35.0513 40.6441
CA -26.3704 -38.3557 32.8253
CA -11.2264 -17.4234 31.191
CA -40.5204 -45.0647 47.8453
CA -16.365 -15.9605 39.909
CA -44.9052 -32.0559 45.7035
CA -12.2059 -27.1043 44.5981
CA -13.5871 -49.8678 55.4374
CA -27.5471 -13.4152 54.507
CA -33.7755 -39.2714 72.0358
CA -30.49 -54.2075 48.4254
CA -8.47965 -34.0479 34.3018
CA -4.95918 -27.091 34.1227
CA -31.1018 -45.0333 55.4002
CA -14.9178 -37.4312 51.2898
CA -29.2404 -47.628 60.004
CA -12.3063 -47.1954 75.6584
CA -39.9845 -25.9293 50.165
CA -33.9344 -40.3594 69.1278
CA -3.29319 -26.3763 14.8477
CA -13.5045 -32.8779 78.7097
CA -27.864 -48.171 70.4558
CA -16.4969 -38.3028 38.1994
CA -13.6373 -47.3605 63.3391
CA -24.4255 -31.0879 64.6152
CA -32.3749 -27.1079 32.9775
CA -26.163 -44.2417 60.2211
CA -38.545 -43.2338 50.2108
CA -35.3286 -35.2636 40.5342
CA -32.3309 -30.8525 26.287
CA -17.9419 -37.5795 70.6989
CA -33.7557 -27.4628 38.5148
CA -41.3136 -35.4283 75.2465
CA -38.5398 -49.4441 73.0009
CA -41.1551 -28.0167 60.8781
CA -30.0242 -17.4403 33.1538
CA -24.7486 -58.9323 58.7767
CA -23.7536 -33.0377 39.6445
CA -33.5288 -29.2437 77.2155
CA -31.3855 -23.7612 52.0901
CA -11.5682 -31.7024 55.0672
CA -13.5536 -37.4567 62.5145
CA -30.0788 -42.1245 59.9752
CA -44.1664 -39.3129 72.3111
CA -8.89178 -34.8564 83.0493
CA -11.1963 -12.3335 1.90335
CA -15.013 -48.5508 77.9119
CA -28.2619 -42.7245 61.307
CA -25.3606 -23.7223 27.7008
CA -33.2401 -12.95 47.6279
CA -21.2762 -46.7823 76.1078
CA -5.36656 -12.9877 6.13074
CA -30.3801 -49.0096 76.7063
CA -34.92 -51.7594 52.736
CA -33.2589 -37.855 60.6664
CA -30.0603 -58.127 60.9001
CA -25.2102 -48.8553 33.4259
CA -16.0632 -25.6714 60.9388
CA -9.7133 -21.4481 44.8124
CA -1.9492 -25.2422 46.5362
CA -11.2437 -38.4736 51.571
CA -24.5196 -34.0899 35.1276
CA -16.1638 -35.5594 71.8408
CA -25.2813 -40.9714 49.398
CA -20.6112 -16.4512 51.7422
CA -3.86088 -20.5058 56.132
CA -17.6584 -47.7515 82.1712
CA -16.9329 -48.9624 77.8264
CA -3.98563 -35.0295 29.934
CA -26.2427 -43.2662 43.6453
CA -4.1237 -14.6305 2.34375
CA -3.24039 -24.623 16.5378
CA 3.44014 -25.3944 45.2386
CA 1.61671 -24.4795 41.7097
CA -27.506 -43.7091 39.2271
CA -23.6469 -20.3207 65.659
CA -12.3558 -25.5458 45.7148
CA -21.7406 -53.9986 39.9153
CA -28.7456 -40.8677 74.9282
CA -20.0729 -39.6623 42.2512
CA -35.3457 -30.7171 24.9148
CA -20.461 -48.8949 55.0148
CA -12.4114 -17.9663 48.2015
CA -15.8046 -47.265 86.828
CA -30.3982 -51.9148 51.6449
CA -36.3532 -17.6992 35.261
CA -28.283 -11.3044 48.1236
CA -17.0471 -21.3814 62.5399
CA -29.5269 -28.2319 47.2245
CA -41.3846 -43.8701 46.3362
CA -13.7945 -9.38854 2.42798
CA -14.3307 -19.0456 48.2786
CA -9.34598 -19.1923 33.0539
CA -32.7071 -27.5659 57.9092
CA -24.4255 -31.4807 26.345
CA -9.18503 -18.5008 56.5392
CA -23.8089 -43.1369 75.6646
CA -15.7901 -11.2548 49.7246
CA -27.3711 -25.2752 32.9315
CA -22.9276 -40.239 45.1352
CA -27.0306 -31.4828 64.295
CA -25.4272 -32.9632 51.4545
CA -17.6395 -26.2239 62.1566
CA -32.2238 -38.3277 62.1166
CA -2.49097 -26.1764 38.0073
CA -15.4361 -16.9399 43.8367
CA -3.46178 -40.1286 33.2
CA -30.5877 -52.1488 47.3657
CA -34.3665 -30.4078 49.8035
CA -9.57146 -37.0839 74.5117
CA -34.7427 -50.6334 56.2195
CA -34.8237 -43.2588 63.194
CA -37.661 -28.2846 32.9593
CA -21.7535 -30.7261 48.024
CA -12.064 -14.2767 48.5885
