489

CA 24.7764 17.2436 40.6527
CA 4.01451 16.8494 31.4205
CA -13.1859 -48.9536 52.4119
CA -9.55042 -39.4403 63.3229
CA -6.80315 -12.3057 29.254
CA 14.4082 2.52324 65.7977
CA -16.0457 -35.969 51.6967
CA -20.9099 12.2468 25.6959
CA -19.4873 -27.3124 55.45
CA -15.8118 -34.1482 60.7079
CA -18.3084 -31.0983 58.4867
CA -16.9775 -18.3158 46.5884
CA -11.5271 0.18956 22.2489
CA -30.2474 -14.3073 45.1745
CA -21.1721 -49.9936 48.166
CA -25.0875 -21.444 41.7063
CA -22.3792 -10.0415 47.0443
CA -20.8494 3.12541 53.2897
CA -24.1775 -48.2502 44.7459
CA -18.1604 -17.7608 38.9626
CA -18.414 -37.4684 52.3885
CA 1.56289 -22.8665 28.6605
CA -30.0838 -14.455 41.4474
CA -8.68707 -11.4096 22.7174
CA -18.2847 -14.5302 45.3955
CA -19.5855 -43.8195 44.8485
CA -24.7296 -9.57503 53.6946
CA -2.01018 -14.9514 61.0861
CA -5.90568 -21.5755 62.987
CA -16.9252 -17.5316 37.5846
CA 7.13638 -4.14246 17.8956
CA 8.01804 3.97385 47.4644
CA -3.5871 -39.306 61.2777
CA 2.81902 -40.6908 59.595
CA -15.8571 16.278 24.9065
CA -25.9087 -8.38312 49.6872
CA 7.80075 14.5058 54.3418
CA -1.36224 12.9681 42.4583
CA -7.42673 19.3931 38.9086
CA -6.54381 -25.6016 58.0678
CA -27.1559 -19.3646 47.4382
CA -13.8551 -36.2516 49.6037
CA 7.73032 -1.09929 66.3007
CA 2.4257 -23.346 41.5287
CA -2.12387 -10.3577 20.3496
CA -20.934 -25.4664 20.5995
CA -19.8055 -37.3737 16.9357
CA -13.0349 -29.3881 15.7608
CA 3.42862 1.14864 61.7066
CA 3.88622 13.4117 38.7214
CA -22.689 -24.5445 20.3633
CA 8.44636 22.2377 33.3927
CA 2.04999 -28.2476 48.3502
CA -3.44085 -21.8055 46.6793
CA 1.40287 6.65602 59.2573
CA 3.46738 9.57372 56.2461
CA -14.1101 13.2103 30.312
CA -18.2089 -6.15593 24.0137
CA -12.8928 13.4318 24.1013
CA -21.2014 -13.4268 68.4887
CA -28.4931 -20.2557 49.1405
CA -0.0595245 -19.7322 20.9283
CA -18.3404 -17.0275 61.822
CA 2.23689 8.06805 48.5402
CA -8.29606 -15.4555 19.365
CA -17.4667 -12.9532 65.8707
CA 5.37755 -41.5462 53.7906
CA -9.06549 2.58809 51.2298
CA 8.59861 8.63198 44.3765
CA 0.276191 10.4414 47.8933
CA 23.7079 17.2405 43.2706
CA 7.62323 2.22662 70.6361
CA -11.9873 7.63575 52.7648
CA 5.36514 12.4076 41.809
CA -5.83213 -44.2406 57.8911
CA 1.19442 -26.5391 42.4152
CA 11.7882 -20.5608 80.9019
CA -22.6018 -19.0615 41.7047
CA -9.42908 9.17839 47.2195
CA 2.3997 4.81667 65.0951
CA 12.4936 2.19778 67.5696
CA -17.4614 -6.79576 51.0747
CA -18.9137 -40.3497 52.2987
CA -3.24501 16.7387 38.8058
CA -15.1518 14.9259 26.0916
CA -22.0807 -16.9061 65.9216
CA 10.6522 11.9866 55.3289
CA -20.254 -24.9304 22.4747
CA -6.03572 -27.3992 44.1188
CA -13.0486 -15.8416 61.0065
CA -0.953123 -8.35791 43.751
CA 2.67271 -45.8033 57.4259
CA -7.4766 -43.2044 62.4982
CA -5.57249 -21.4142 22.6305
CA -0.952876 2.96828 56.1213
CA 9.6774 11.0989 34.8649
CA -4.38789 -7.04346 17.1134
CA -3.50896 -32.0037 46.1825
CA -0.118682 -23.3591 49.1411
CA -9.69205 -22.613 56.5636
CA 10.0228 0.0211927 68.0009
CA -27.5986 -10.8728 46.4931
CA -4.7378 -36.6969 69.6988
CA -9.02182 -44.8921 62.7095
CA -9.39506 -1.68335 28.1974
CA -22.2089 8.34634 23.9236
CA -19.8572 -27.064 25.7558
CA -1.17296 -10.9011 22.7492
CA -15.0905 1.47214 56.8196
CA -25.3838 -45.0976 40.2928
CA -5.50243 -12.1217 22.8588
CA -8.16272 7.27917 55.3172
CA 9.02825 6.82125 56.0629
CA 10.7109 -14.0266 25.9946
CA -15.4838 -37.5232 54.3734
CA -16.7989 -14.2178 64.0682
CA -17.5886 -36.9676 55.3756
CA 11.0025 -15.7629 29.995
CA -2.69601 -11.0805 39.1934
CA -2.88138 -12.8225 44.5629
CA -17.2256 -7.74979 24.8846
CA 7.04554 18.2604 34.5228
CA -14.8619 -18.0054 18.587
CA -7.76741 -43.9355 58.997
CA -20.9111 -16.7313 37.0795
CA -16.0529 -44.901 46.1198
CA -23.8755 -43.6301 38.4834
CA -15.7756 -32.1904 20.6696
CA -19.0519 -26.889 20.5613
CA -5.09046 -18.0315 43.3211
CA -9.38569 -13.4851 44.3396
CA -19.0182 -12.8863 63.369
CA 9.42541 4.34041 48.9034
CA -8.14219 -28.3834 46.5602
CA -18.8472 -0.687859 29.0128
CA 9.75303 7.02464 37.3238
CA -26.0265 -14.4812 43.3763
CA -11.382 -13.5196 32.3136
CA 3.4527 -0.455298 70.7242
CA 4.42383 -14.0585 26.9939
CA -25.4539 -9.9971 45.4835
CA -2.08129 -20.6342 59.2073
CA -2.47489 5.82103 49.6162
CA -9.10414 -25.2452 27.9763
CA -7.49101 -31.9104 64.0651
CA -18.7692 18.7155 24.9369
CA -14.3724 14.0123 28.42
CA -1.89562 -27.6985 42.8524
CA 6.39303 21.0763 47.053
CA 10.3458 6.09986 46.1422
CA 0.433489 -26.628 44.5128
CA 2.94531 18.957 48.6789
CA -29.0235 -20.1564 46.7842
CA 8.3212 20.1951 36.8344
CA -10.5519 6.7135 59.1434
CA -27.0924 -18.9301 49.4609
CA -12.2337 -8.8126 17.7893
CA -3.12055 -17.7514 17.0873
CA -15.3595 -38.5192 59.1861
CA -20.1605 -26.8094 23.2381
CA 0.402269 7.97408 60.7659
CA -18.8686 -21.5528 43.1947
CA -14.8962 -20.0475 37.6896
CA -9.80348 6.40068 48.4663
CA -22.5692 -12.9532 41.4373
CA 1.50959 -29.4412 40.2746
CA 0.910226 -7.93656 43.4438
CA 7.12033 0.101037 61.0346
CA -3.81565 4.71862 46.7114
CA 2.49925 6.07465 40.4891
CA 1.4481 10.7704 35.5136
CA -9.8318 1.96028 55.4195
CA 8.06425 10.7463 38.817
CA 6.22642 6.44017 52.9197
CA -1.94551 -9.68935 16.5317
CA -17.9437 -35.2025 48.1005
CA -25.8568 -11.1077 46.9178
CA 3.74902 -21.7927 38.0922
CA -17.3199 11.0889 26.0986
CA -0.798737 12.7815 47.2812
CA -10.5778 -42.8237 46.7473
CA 0.507894 -15.3368 24.3656
CA -19.3195 -18.7681 59.9603
CA -14.209 -25.8994 24.0859
CA -13.1876 -35.4969 62.7402
CA -10.8334 -22.5932 45.1682
CA 9.06342 -30.6727 45.5367
CA -16.4527 -7.96406 49.0436
CA -18.0082 1.8203 30.0695
CA 4.43148 8.59113 41.6011
CA -5.94929 -32.1886 51.4948
CA 14.006 29.0879 45.8902
CA -4.93034 18.8167 33.5483
CA 11.5791 23.9195 45.4545
CA 9.75002 8.03594 46.5055
CA 2.29433 -18.6991 29.6639
CA -5.05228 -31.1261 46.5352
CA -18.1105 -16.7289 32.9418
CA -14.3516 -38.1266 52.8716
CA 4.72097 4.68751 64.1932
CA -0.541985 5.47025 46.1898
CA 0.621508 8.11799 47.7405
CA -19.9437 -12.9076 66.267
CA -0.12961 18.8545 43.1049
CA 7.72659 15.6656 27.2719
CA -2.94255 -42.9817 60.1057
CA -18.0144 1.2492 52.9765
CA -15.2641 -8.86424 23.9535
CA -2.35149 -17.4953 58.7413
CA -3.53783 13.3267 45.5408
CA -17.1421 -30.6557 15.4494
CA 2.21696 -42.7875 57.827
CA -14.0219 -6.4333 27.309
CA -2.227 -14.2512 24.1384
CA -0.10295 -24.7285 39.9446
CA -0.727393 16.2037 35.3639
CA 5.41246 7.89796 57.1839
CA 2.08885 6.22278 26.6037
CA -12.1286 3.1529 62.2109
CA 11.9144 -20.3638 76.2655
CA -17.9059 -15.0334 50.2674
CA -3.53138 16.0642 55.4436
CA -0.0313482 16.1048 57.3022
CA -9.84493 -35.7811 62.7466
CA -18.7928 14.8252 19.5391
CA -13.6236 -24.0036 29.0336
CA -18.3235 6.07741 25.6305
CA -15.2887 -50.0159 47.406
CA 9.49458 9.19045 38.7529
CA 10.5114 3.00912 54.1514
CA -20.6746 -11.4093 64.0846
CA 1.48663 -11.3086 32.7575
CA -10.305 -34.1497 52.8129
CA -8.71976 -6.21888 44.3254
CA -5.38021 -24.6993 56.2688
CA -4.64153 -5.89716 21.179
CA 8.18685 15.199 32.6285
CA -6.52545 11.3748 58.9316
CA -5.41968 -40.9323 63.0455
CA -18.6293 -26.1056 43.3125
CA 13.1681 5.65344 70.9065
CA 5.41622 11.7245 36.1655
CA -3.83157 -19.1369 21.6849
CA -14.3146 -44.6874 51.6056
CA -6.80249 19.1213 35.4136
CA -2.42529 -24.9784 58.8399
CA -15.2855 -19.3741 63.1646
CA -10.2856 -15.8972 24.0354
CA -5.56481 12.8999 37.4828
CA -22.8816 -14.4229 49.7543
CA -22.4387 -47.9574 44.2199
CA 8.17145 7.09867 32.3825
CA 6.6927 1.23197 64.6575
CA -3.11663 13.0093 50.8707
CA -10.1839 13.8581 30.2454
CA -17.5433 -34.5401 24.927
CA -3.25712 6.63796 45.0237
CA -10.8475 -19.9445 33.3139
CA -16.2064 -44.2534 48.3492
CA -7.11528 -39.4885 64.1913
CA 17.3065 -0.762524 52.0842
CA -5.43339 -6.04875 39.1095
CA -2.33501 -32.1502 58.8721
CA 0.427392 19.7763 37.4894
CA 11.5254 31.8403 44.5163
CA -14.4795 -14.9535 65.6635
CA 6.23158 -1.40311 70.0739
CA -22.2428 -17.256 63.3539
CA -18.1486 -20.5482 24.2722
CA 5.63742 9.67823 35.1971
CA -5.17786 -21.1037 59.8194
CA 5.06737 18.2153 30.589
CA 0.298996 17.3092 48.4031
CA -4.97689 20.9787 37.7858
CA 5.12476 5.74883 68.5857
CA -3.01255 -4.9328 21.8566
CA 1.94404 6.2508 48.6108
CA -4.54295 -23.654 25.0534
CA -13.1697 -40.4545 49.8497
CA -12.043 16.6022 33.9223
CA -10.4848 -18.3577 44.6798
CA 12.0424 7.56901 29.4796
CA -7.85385 -0.677664 26.763
CA 4.83075 17.0793 45.1347
CA 3.50459 8.25565 52.7964
CA -4.38096 -20.6836 15.7887
CA -20.2404 -37.6101 27.7316
CA -23.4153 -9.32141 65.8918
CA -23.7359 -10.9555 48.0962
CA 1.96224 8.36786 46.4829
CA -4.826 -23.769 62.0616
CA 4.02063 -14.2486 28.9859
CA -0.77953 -8.14414 22.2431
CA -11.7176 -30.9162 51.288
CA -2.60169 -10.5668 46.2504
CA -18.2849 -30.1733 53.3203
CA -8.45801 5.764 53.3481
CA 3.86049 -16.7737 38.5068
CA -5.41794 5.70309 32.4499
CA -21.9522 -29.9335 18.6506
CA -22.8895 -13.2829 66.3936
CA -22.5505 -6.43973 20.1442
CA 10.1802 22.1876 44.1858
CA -17.7717 -9.5719 26.2939
CA -2.41921 -33.1404 44.2012
CA -15.1764 -31.57 16.6392
CA -2.53296 13.5944 38.1199
CA -18.2837 7.44017 35.7903
CA -3.74113 -11.1972 30.003
CA -10.606 -11.0246 27.8948
CA -15.2345 3.8604 34.0597
CA -6.78444 -23.769 45.7587
CA -3.18067 17.4686 35.3035
CA -14.9578 -28.5138 60.0824
CA -16.4233 -16.0667 65.8895
CA -3.86444 -19.441 59.7709
CA -6.39953 -45.303 70.7479
CA 3.77876 10.3525 39.5906
CA 7.92843 5.74725 43.0106
CA -10.218 -10.7967 24.3082
CA -24.8297 -13.599 49.0219
CA -23.9695 -6.86523 17.4577
CA 11.9384 -0.863652 65.0753
CA 8.39635 1.00217 66.6332
CA 1.85738 -24.5043 47.7491
CA -19.0055 -46.1603 45.5999
CA 0.249106 -23.7509 44.6681
CA 9.22192 16.7384 30.1692
CA -19.5062 11.9529 39.2996
CA -16.0393 -37.764 51.1266
CA -15.7975 -15.1933 42.3444
CA -4.67439 -2.46826 41.0457
CA -17.5217 -12.6681 70.1894
CA -3.81374 -20.6495 27.4353
CA -2.49959 -25.0882 61.5048
CA -16.7141 -18.9823 24.7056
CA -12.9954 -17.3459 36.2814
CA -21.76 -10.0776 52.2819
CA -8.54366 -21.5177 64.8234
CA -14.6927 -33.247 50.7008
CA -3.65523 -8.71128 25.0014
CA 8.53204 22.7492 41.2397
CA -15.917 -43.9027 50.4643
CA -21.2751 -12.1756 47.1607
CA -0.881498 -29.4024 34.6551
CA -15.5405 15.5583 32.1703
CA -6.18128 -14.2028 27.7392
CA -18.3829 -19.3035 42.5443
CA -4.09475 -13.314 24.5904
CA -6.87044 -20.0799 23.3235
CA -16.2032 -30.0884 24.5559
CA -10.6842 -41.5492 49.7145
CA -1.45582 -27.2243 61.1196
CA -1.87119 -9.02169 37.2375
CA 9.4881 -15.4405 38.9404
CA -0.557181 -46.2196 64.0343
CA -8.35214 1.74969 25.6158
CA -3.58286 -37.6296 56.6884
CA -4.60448 -17.7551 24.825
CA -17.0785 5.47793 27.7404
CA -9.82222 -30.7787 42.0895
CA -25.1029 -47.943 47.5978
CA 4.14375 -23.9559 45.142
CA -1.72123 -8.05708 41.1558
CA 2.86746 1.16662 66.353
CA -10.5017 -41.5271 70.389
CA 19.5561 10.709 38.1047
CA -8.1402 -12.6724 54.3303
CA -2.57428 -10.831 23.9687
CA 1.94729 -13.6813 63.119
CA 9.16631 18.6132 37.6837
CA -15.9489 -29.4124 22.3518
CA -24.9112 -19.7618 47.1078
CA -16.4631 -43.1269 46.823
CA -14.3025 6.8607 29.468
CA -19.8701 -16.2297 14.2274
CA -1.67697 -30.9314 48.1912
CA -16.1232 -15.9642 26.7882
CA -26.0129 -6.34818 45.6495
CA -24.4997 -14.8012 38.3871
CA -13.7129 -15.3526 53.634
CA 0.0394042 8.71465 42.5111
CA -16.214 -10.2764 65.8658
CA -21.4822 -19.4228 64.5137
CA -15.8361 -5.91057 19.6272
CA -15.4176 -45.9287 53.3174
CA 10.1838 21.1713 49.3188
CA -18.2737 -18.8793 37.39
CA 10.2228 -12.6913 29.2863
CA -0.339828 -28.3977 46.607
CA -1.07144 -46.9504 66.9513
CA 0.165181 -21.2793 58.8684
CA -3.08109 -6.96435 14.6841
CA -22.089 11.9042 19.4938
CA -7.02318 -39.5126 73.4301
CA -24.6366 -14.4369 51.726
CA 3.14446 -25.2769 40.1848
CA 10.1776 8.42496 31.0704
CA -15.2504 -11.0443 64.0457
CA -23.6745 -31.6359 19.0229
CA -18.7115 -45.1194 43.6542
CA -11.1499 -29.0552 60.126
CA -1.97908 12.9983 35.687
CA -18.7492 -12.2607 67.6463
CA -21.6198 0.102099 27.6052
CA -16.3192 -31.1236 53.2512
CA -19.8466 -11.6745 40.3549
CA 2.24382 8.69874 41.3697
CA 5.09912 11.2878 55.7689
CA -4.62392 -13.7288 29.3788
CA -17.9586 3.90882 27.6208
CA -7.79981 -14.556 30.4793
CA -23.7724 -13.5397 68.1803
CA -15.1452 -1.78291 25.5257
CA 22.9434 19.6549 88.3074
CA 4.96024 5.10806 58.3842
CA -17.3249 -12.3253 60.9089
CA -19.8807 7.58178 22.2336
CA -13.2389 -14.5164 58.1542
CA 6.72626 21.0589 44.6087
CA -11.3525 -8.41387 22.9074
CA -20.0698 -11.4343 49.9086
CA -20.4271 -8.70896 20.104
CA -23.8982 -11.255 50.4071
CA -15.073 4.16272 31.5545
CA -19.8473 -32.5514 53.599
CA -0.340857 -13.8761 62.1375
CA -14.9426 -20.0858 25.978
CA -6.90917 -26.0546 52.0539
CA -16.2389 -28.2508 53.2259
CA -13.0448 -29.5513 28.9679
CA -14.6199 -23.033 38.5234
CA -17.9535 7.84117 21.8278
CA -14.8857 -25.8587 28.0818
CA 10.5433 17.7467 35.2079
CA -13.0783 -19.3501 27.642
CA -12.5969 -17.9687 67.7234
CA -7.73304 -32.6812 67.5262
CA 2.49728 -24.2237 33.8535
CA 7.49346 -29.5331 44.5786
CA -2.47962 -37.0755 58.4796
CA -5.16726 -0.132731 54.5314
CA -11.1116 -24.2917 24.8216
CA -13.8327 -39.9138 52.9794
CA -2.41523 -20.5774 17.233
CA -5.19298 -42.6919 61.8081
CA -2.99572 9.27178 47.7098
CA 0.185572 15.2885 37.1092
CA 3.85656 -34.746 47.9936
CA -1.69213 -19.8134 56.0208
CA -10.0909 -15.9935 62.5574
CA -16.4351 -29.9697 56.5926
CA -0.532733 11.1188 45.9227
CA -22.4189 -48.8672 45.9748
CA -2.81532 6.28975 47.5327
CA -15.4964 -46.7992 49.3031
CA -4.35467 3.74902 52.8128
CA 1.01762 -8.02962 39.0083
CA 5.89346 12.3649 27.5737
CA 6.85479 13.786 33.3437
CA -5.69263 0.36724 25.9395
CA 7.7132 13.962 49.6018
CA 10.8317 -31.1504 41.7073
CA -1.82262 -6.69821 18.5529
CA -11.5542 -30.9646 61.3648
CA -19.5988 -11.3242 47.473
CA -20.6009 -42.2677 42.3696
CA 0.475336 -7.32604 40.633
CA -16.0396 -2.59602 23.1753
CA -0.00773714 -29.1425 37.1249
CA -4.8116 -40.9851 66.0143
CA -11.8565 -8.04759 28.059
CA -16.3426 -5.07579 23.865
CA -9.24327 17.7646 38.6013
CA -3.61196 -48.5004 71.0192
CA -15.4466 -14.5979 67.5268
CA -23.9677 -44.629 42.0479
CA -9.06202 -13.7662 22.7775
CA 0.254575 -5.77797 20.457
CA 8.22947 28.5847 44.4908
CA -12.4384 -6.96546 22.6821
CA 1.6131 -39.572 58.2708
CA -18.3353 9.08928 20.3247
CA -26.1681 -10.1777 50.5896
CA 3.54827 -40.4102 54.8308
CA 6.59423 0.719527 68.3283
CA -13.8651 -25.6078 17.7905
CA 7.47065 7.32533 47.8998
CA -0.0541756 7.55642 27.1894
