489

CA -15.7091 -15.1387 64.9733
CA -26.4975 -11.2353 36.2352
CA 11.2479 2.78422 45.5643
CA -29.7271 -26.5222 45.3054
CA -6.80315 -12.3057 29.254
CA -22.8579 6.93261 20.8835
CA -10.2163 7.05516 51.8252
CA -20.9099 12.2468 25.6959
CA 11.0494 28.3988 48.4524
CA -5.36942 -6.31604 48.249
CA -18.3084 -31.0983 58.4867
CA 21.1293 5.03046 40.1134
CA -10.1713 -9.78519 16.1703
CA -30.2474 -14.3073 45.1745
CA -12.0825 -10.6385 23.216
CA -25.0875 -21.444 41.7063
CA 0.493249 -26.6151 38.6183
CA -7.1179 21.9764 39.0576
CA -26.9034 -9.85536 58.6531
CA -18.1604 -17.7608 38.9626
CA -18.414 -37.4684 52.3885
CA 1.56289 -22.8665 28.6605
CA -20.9308 -21.0415 43.7182
CA -19.4755 -45.6411 48.4569
CA -7.29584 23.415 32.4601
CA 9.32335 -26.2926 45.9296
CA -12.3267 -25.8249 59.9809
CA -1.6576 -49.918 70.3377
CA -13.584 -18.4377 44.5893
CA -17.7595 -40.4216 56.7659
CA -7.21946 20.8492 33.6993
CA -8.59625 1.5621 48.5061
CA -17.723 -32.9306 60.4467
CA 13.2266 16.0399 36.1307
CA 6.82754 -28.0072 54.0544
CA -7.34255 -10.0289 24.5592
CA -3.35391 -4.40784 19.4265
CA 3.87692 -1.56191 67.7715
CA -19.4457 5.65369 23.3911
CA -23.8801 -8.62865 37.2166
CA -5.01598 -20.434 47.0727
CA 4.07284 8.61528 66.2599
CA 7.73032 -1.09929 66.3007
CA -18.8931 -7.67479 65.986
CA -23.3731 -13.3273 63.5336
CA -20.5292 -43.8934 44.7681
CA -7.82216 5.59354 51.2299
CA -13.9077 -0.35748 54.1909
CA -9.07262 -13.0484 31.2015
CA -20.7233 -28.9059 53.0817
CA -7.24968 -4.27066 39.0614
CA 5.25325 -20.3631 27.8977
CA 2.04999 -28.2476 48.3502
CA -3.44085 -21.8055 46.6793
CA -1.5344 14.5789 34.8062
CA -2.15327 -29.1207 61.2499
CA 1.48805 -10.3225 24.4767
CA 3.62938 10.3539 48.5961
CA -24.8627 -32.1927 16.5321
CA -21.2014 -13.4268 68.4887
CA -4.70632 -27.2246 58.7035
CA 4.68918 3.08047 71.8005
CA -12.4631 -20.3209 23.7768
CA -1.49157 -19.3506 34.3934
CA -1.94196 19.1691 32.1204
CA 4.84661 -26.3521 46.3305
CA -1.20735 -10.4922 63.3061
CA -7.11188 -4.7849 28.5027
CA -3.31453 -18.0277 57.1959
CA 4.59128 -28.1736 41.115
CA 23.7079 17.2405 43.2706
CA 15.0175 30.829 43.0581
CA -11.1386 18.0046 33.1395
CA 2.82534 22.4633 50.7444
CA -16.4438 -46.8478 40.7759
CA -7.48366 -13.0418 18.1884
CA 4.1974 29.5575 45.3689
CA 6.02744 -15.8725 33.3667
CA 9.89112 2.87248 47.9202
CA 2.3997 4.81667 65.0951
CA 2.89415 -20.2504 49.9165
CA -22.12 -7.53088 33.359
CA -0.587402 -21.7462 43.4185
CA -16.968 -5.87734 26.3087
CA -26.8865 7.94864 23.1481
CA -17.3827 -36.4772 47.1044
CA -25.167 -50.0327 43.0751
CA -6.93779 -36.5492 61.249
CA -22.9143 -14.0555 50.7387
CA -6.41634 -1.86457 56.0684
CA 25.7073 18.4194 46.907
CA 28.0005 16.2694 43.1071
CA -12.3076 -9.3277 24.8122
CA -18.2113 -18.1722 62.4391
CA 0.968795 -9.34862 20.259
CA -18.5148 -20.8203 36.5913
CA -16.1081 -5.37621 22.6166
CA -21.8787 -7.7084 23.6289
CA -0.118682 -23.3591 49.1411
CA -12.2644 -19.9298 63.5353
CA -12.8941 -14.7092 64.2835
CA -14.2658 -3.50089 19.2642
CA -4.34412 6.79026 54.599
CA -18.6939 -19.686 64.7124
CA -9.39506 -1.68335 28.1974
CA -5.88509 -8.87772 19.3917
CA 13.5378 -16.474 32.7051
CA 0.719045 2.81104 53.623
CA -14.3033 -11.3743 24.1865
CA -27.8703 -10.3185 22.7033
CA -22.3179 -31.3614 20.1994
CA -1.04609 -17.3351 24.0209
CA 0.148865 -2.16043 19.9487
CA -8.60878 -19.1678 74.3032
CA -16.3589 -3.93892 26.0877
CA -16.9747 -38.9649 58.242
CA -14.7315 3.84315 23.0433
CA 11.0025 -15.7629 29.995
CA -4.63302 -2.60152 38.5376
CA -2.88138 -12.8225 44.5629
CA -19.8117 -15.0695 69.0071
CA -14.8672 -14.7329 62.8353
CA 0.601735 1.47811 47.8978
CA 9.94549 17.4455 41.8458
CA 6.77287 34.5092 43.9465
CA -2.4747 -12.9477 20.158
CA -18.5657 -41.5892 44.9973
CA -18.6518 -36.6418 58.6786
CA -19.0519 -26.889 20.5613
CA -15.0872 0.742453 25.3549
CA -10.7104 -32.305 47.3765
CA 7.93837 -5.7809 67.7535
CA -3.82931 11.738 47.5902
CA 1.35447 -25.8416 45.8846
CA -18.8472 -0.687859 29.0128
CA 9.75303 7.02464 37.3238
CA 1.60118 -9.88404 16.8623
CA -17.3419 -23.9457 25.9848
CA -16.7528 -10.7483 24.2577
CA 4.50835 0.65935 69.1459
CA -18.9159 -11.2686 50.519
CA -10.3561 -19.0332 26.522
CA -2.47489 5.82103 49.6162
CA -28.3591 -10.6011 39.2875
CA -25.1236 -46.7225 48.8143
CA 13.6762 -17.6502 28.5425
CA -2.00442 -7.65937 27.4052
CA -21.9669 -7.23461 11.269
CA 6.39303 21.0763 47.053
CA -28.144 -11.292 37.1117
CA 5.73498 16.4877 39.1442
CA -9.01351 -22.828 47.2468
CA -29.0235 -20.1564 46.7842
CA -1.03228 -30.3967 58.7225
CA -1.86129 6.70376 55.6056
CA -23.8102 -5.97499 18.9399
CA 10.3929 -10.5993 30.8738
CA -27.194 -45.6508 48.3541
CA -24.2331 -12.7195 46.7319
CA -3.82396 -21.4175 59.8023
CA 1.54054 -19.5976 21.6284
CA -1.44786 -39.205 58.7154
CA -24.2065 -11.3113 22.9327
CA -9.80348 6.40068 48.4663
CA -22.5692 -12.9532 41.4373
CA 10.1091 -18.8476 29.468
CA 10.5017 -12.7802 25.9876
CA -12.6815 -40.2867 50.3753
CA -26.869 -51.5173 49.9064
CA -21.79 -49.9899 42.3551
CA -5.42275 -16.9866 25.4522
CA -2.02295 -17.0875 63.9877
CA 1.67741 -14.122 19.5699
CA -18.8147 -39.9956 49.5121
CA 16.3029 1.28816 65.6803
CA -18.4363 -9.48703 63.5511
CA -25.8568 -11.1077 46.9178
CA -11.4554 3.2446 57.5806
CA -9.68767 5.15939 50.5993
CA -17.1773 -9.02811 20.2401
CA -4.88713 -13.505 25.0528
CA 0.507894 -15.3368 24.3656
CA -0.316343 11.5937 50.5182
CA -21.4002 -33.4067 61.3249
CA 2.78862 -28.4571 41.9899
CA -0.902265 -28.2593 63.4374
CA 9.06342 -30.6727 45.5367
CA -17.4498 -23.8882 40.3128
CA 5.51274 -1.50298 75.0934
CA -12.2528 -20.372 38.8451
CA 5.60412 -29.5505 55.5734
CA 14.006 29.0879 45.8902
CA -4.93034 18.8167 33.5483
CA -23.1481 -29.1149 16.5064
CA 21.3396 6.93153 38.0455
CA 2.29433 -18.6991 29.6639
CA -4.15062 25.8897 41.5018
CA -2.03216 8.90934 46.0569
CA -5.14042 22.9369 38.2785
CA 2.40014 3.79869 60.8201
CA -0.309607 15.793 38.9554
CA -20.1852 14.1276 25.9856
CA -7.49206 -29.2593 58.5675
CA -13.9222 -9.90659 27.6587
CA 11.2275 17.5737 39.6868
CA -7.42711 -13.822 32.7985
CA 25.1796 13.9452 45.242
CA -8.77943 -5.40408 38.9997
CA -4.86378 20.6927 33.2198
CA -9.59347 -13.6759 27.001
CA -15.4102 -41.4387 53.9761
CA 27.2625 11.8414 45.9722
CA -8.14277 17.5926 34.2028
CA 12.7173 -16.1945 29.6571
CA -17.5469 -42.3805 40.8828
CA -17.9069 -22.9981 43.6162
CA 5.41246 7.89796 57.1839
CA 6.81272 26.051 35.359
CA -12.1286 3.1529 62.2109
CA -7.42528 -18.4348 32.3906
CA -6.87706 -11.4647 22.3802
CA -0.391684 14.8109 42.6343
CA -1.10085 2.20094 26.2126
CA -9.84493 -35.7811 62.7466
CA 3.62366 -32.2324 49.6839
CA -6.50521 -45.1465 67.877
CA -7.96678 -18.9784 56.9583
CA -1.62459 -10.4592 18.3553
CA -7.67243 -16.3967 28.6401
CA -17.721 -40.282 61.4178
CA -20.6746 -11.4093 64.0846
CA -18.0312 -41.9436 50.9594
CA 5.49311 -21.0973 37.4858
CA -0.800415 2.34821 28.5312
CA -13.037 -16.0068 30.2511
CA 5.39552 -29.6243 46.9875
CA 7.996 14.3739 45.2833
CA -21.9194 -9.012 58.5999
CA -23.8129 -47.2649 45.7933
CA -21.1348 -7.80669 14.6431
CA 13.1681 5.65344 70.9065
CA 1.15898 7.94215 66.7703
CA 1.27461 -21.0391 51.3666
CA -4.5388 -9.83734 28.0575
CA -6.80249 19.1213 35.4136
CA -12.1138 -1.10233 54.231
CA -0.87182 3.13587 52.3897
CA -19.2032 -27.0248 45.9094
CA -11.7406 -41.0636 51.8325
CA -15.5293 -35.737 55.8598
CA -8.1074 -25.3532 59.9162
CA -25.5704 -23.2286 39.8709
CA -7.73423 -39.1552 69.3563
CA -8.83255 -17.0186 30.7539
CA -12.9771 -14.0613 44.7737
CA -22.0214 -35.9354 50.6515
CA 11.2896 3.10465 49.4572
CA -24.788 -41.5145 49.3546
CA -20.7551 3.21693 28.5164
CA -7.11528 -39.4885 64.1913
CA -21.7464 -48.9701 47.2572
CA -5.43339 -6.04875 39.1095
CA -2.33501 -32.1502 58.8721
CA 13.1882 17.8292 43.2652
CA -5.31107 15.6104 45.346
CA -18.0712 -2.1842 27.4316
CA 6.23158 -1.40311 70.0739
CA -14.1539 -13.8927 27.1085
CA -18.1486 -20.5482 24.2722
CA -7.79722 -13.8839 14.3933
CA 5.63957 3.71294 48.4576
CA 11.0796 2.15361 51.4153
CA -9.26674 -4.5587 25.3876
CA -20.3819 15.4198 21.7963
CA -15.5221 -5.22425 24.4166
CA 5.97203 26.9501 42.7724
CA -15.5107 -17.2306 60.4689
CA 0.597781 -27.0858 42.4515
CA -5.18865 20.2762 35.3134
CA 10.2154 3.86581 78.5858
CA -12.8676 -11.9897 64.4572
CA -14.8289 -5.87775 27.841
CA -21.3983 -19.9991 35.868
CA -2.89597 24.1868 37.3084
CA 3.50459 8.25565 52.7964
CA -19.0063 19.528 23.0788
CA 5.30949 16.8779 50.8525
CA -4.15511 -10.82 25.1547
CA -1.16138 -6.07192 41.0187
CA -17.4868 -37.2186 50.6615
CA -28.7703 -8.34156 37.9974
CA -2.1032 -25.4639 60.9181
CA -7.80436 21.4781 41.0287
CA -11.7176 -30.9162 51.288
CA -0.250493 -36.8809 66.6085
CA -15.1263 -12.4558 28.014
CA -9.14413 -36.8724 71.861
CA -27.0499 -12.453 21.5496
CA -10.4024 2.72865 49.8302
CA -8.36707 -29.5057 48.5461
CA -7.03852 17.4996 36.6801
CA 12.2712 -12.9409 30.9134
CA 1.16079 -21.2793 56.5875
CA -15.4341 -33.6072 15.8021
CA -9.15885 -16.3545 24.9852
CA 14.1614 28.2237 42.2165
CA -2.93161 -2.67593 53.3416
CA 2.60906 -13.5633 27.5035
CA -3.74113 -11.1972 30.003
CA -11.0572 -18.5716 71.887
CA -0.831031 -8.8979 30.3714
CA -6.78444 -23.769 45.7587
CA -2.65262 -28.8897 35.7947
CA 19.965 6.42111 39.2858
CA -1.90212 4.73648 48.2961
CA 0.834145 6.75136 49.6765
CA -12.7109 -23.5164 60.6849
CA -2.17554 -34.6503 62.832
CA 3.80572 16.7942 41.3601
CA -10.218 -10.7967 24.3082
CA 3.9633 -22.6192 39.1492
CA -0.688347 -21.582 61.3354
CA -5.86827 -15.0244 25.8231
CA -5.63931 9.79542 45.5568
CA 1.85738 -24.5043 47.7491
CA -19.0055 -46.1603 45.5999
CA 9.80797 13.9903 34.287
CA -27.2452 -15.4602 48.8903
CA -0.816332 -20.1398 21.1719
CA -23.8813 -44.5146 49.9249
CA -9.35584 -6.42119 22.0392
CA 14.8638 5.25344 67.5866
CA -14.9901 18.2441 29.0648
CA 2.27511 0.536432 67.4342
CA -3.15017 21.5279 33.4663
CA -14.2735 15.5967 24.3299
CA -12.9954 -17.3459 36.2814
CA -21.76 -10.0776 52.2819
CA -0.478201 1.21969 51.5446
CA 10.234 24.11 39.4545
CA 11.7033 27.3898 42.7245
CA -18.9867 7.88837 19.9131
CA 3.10925 -2.18995 65.2095
CA -10.3182 11.365 51.948
CA 4.56315 17.0051 45.4584
CA 6.94003 6.81833 46.6333
CA -6.18128 -14.2028 27.7392
CA -19.6956 -4.85217 28.3839
CA -20.3562 -8.75806 16.8023
CA 6.82574 12.9613 29.0603
CA 3.50174 -23.3651 36.6504
CA -9.62724 4.66449 52.7065
CA -7.16167 -11.3827 34.5
CA -0.1259 -23.2389 51.0946
CA 6.0594 -4.76271 69.096
CA -8.01914 -14.1635 59.4388
CA -14.8225 -21.7324 61.5095
CA -5.26025 -13.72 21.2862
CA -11.0879 -10.4853 30.1786
CA -22.8132 -11.7013 21.517
CA -23.4984 7.99208 26.3484
CA 10.0112 -0.725808 49.7335
CA -24.1253 -17.2831 52.2944
CA -13.0335 -1.20575 50.2664
CA -36.1403 -19.9602 50.3108
CA -10.5017 -41.5271 70.389
CA 19.5561 10.709 38.1047
CA -30.7663 -22.6473 47.0136
CA -18.757 -8.67122 61.1923
CA -2.221 -17.938 60.6044
CA 10.9047 27.8062 37.3946
CA -13.4583 -31.2107 53.9881
CA -18.7846 -7.25108 26.0448
CA -16.4631 -43.1269 46.823
CA 8.46697 -26.7983 41.8116
CA -19.8701 -16.2297 14.2274
CA -11.7319 -14.9619 27.5331
CA 3.48435 5.1798 46.0948
CA -15.2803 -12.3363 47.6622
CA -0.317649 -33.465 58.9664
CA -6.28691 6.46309 51.8019
CA 5.62405 -24.8936 40.0559
CA -11.7629 -16.6138 63.3666
CA 5.98096 24.6652 46.2532
CA 4.24543 4.21587 43.7275
CA -16.501 -27.7006 21.8831
CA 5.73093 -26.7498 44.6386
CA 10.0063 15.5276 36.4152
CA 10.2228 -12.6913 29.2863
CA -0.339828 -28.3977 46.607
CA 10.8843 24.8348 42.7646
CA 0.165181 -21.2793 58.8684
CA -4.81379 -36.7335 60.0924
CA -1.21904 13.4785 46.0005
CA 4.76953 -15.9923 28.5929
CA -13.5181 -3.03613 22.2701
CA 1.164 19.9791 50.1838
CA -11.1274 0.525516 59.8294
CA 2.72209 14.1425 41.0062
CA -0.595696 -7.85041 20.4214
CA 6.11804 -15.1081 35.3715
CA 2.42805 -25.821 51.3114
CA -21.0812 -12.1802 32.8237
CA -5.47051 -27.9249 62.2844
CA -33.3724 -20.5477 47.7178
CA 2.66933 4.15063 52.0948
CA -22.4523 -39.3624 46.9704
CA -21.3754 -24.9219 15.8226
CA -0.163227 6.40794 53.0653
CA 1.72005 -29.3782 43.5726
CA -11.1054 -14.3331 25.4187
CA -8.68629 -31.2029 51.6049
CA -28.3135 -24.9651 39.3611
CA -13.457 18.8408 20.0473
CA -11.1095 -18.9186 24.6224
CA 4.96024 5.10806 58.3842
CA 15.0934 3.66775 49.8118
CA 6.92895 -0.0222353 74.9839
CA -26.8098 -20.5894 45.4367
CA 0.912283 -21.0618 33.1517
CA -3.7991 23.3851 40.8812
CA -17.2797 17.0632 21.0004
CA -20.4271 -8.70896 20.104
CA -21.336 -9.36071 63.2812
CA -23.9639 -10.2217 20.0023
CA -9.37073 8.64769 51.139
CA -0.340857 -13.8761 62.1375
CA -10.7926 -4.54743 37.9346
CA -18.9235 -6.97532 62.8501
CA -22.599 -37.1151 48.5863
CA -25.8579 -12.9856 39.5629
CA -2.86864 -35.2877 58.2871
CA -17.4562 -8.62879 22.9351
CA 11.5136 1.47363 48.3207
CA 10.5433 17.7467 35.2079
CA 10.439 6.51768 43.5795
CA -12.5969 -17.9687 67.7234
CA -10.4537 0.498869 55.9646
CA 2.49728 -24.2237 33.8535
CA -15.7538 -30.4963 45.4332
CA 3.07408 25.0545 44.6486
CA 2.37234 5.79266 37.9849
CA -15.2251 2.13163 23.4985
CA 4.98937 8.06016 39.4663
CA -2.41523 -20.5774 17.233
CA -5.19298 -42.6919 61.8081
CA -14.3941 -18.7057 67.425
CA 7.37843 4.07004 75.9723
CA -19.2123 -44.15 46.0084
CA -4.07111 15.5669 43.1204
CA -10.0909 -15.9935 62.5574
CA 28.7751 17.3751 47.202
CA -6.76866 -18.9386 44.6369
CA -26.0249 -41.1237 44.5505
CA -12.9658 -36.4153 46.6537
CA -6.92516 26.4238 38.0286
CA -8.02472 -11.1682 50.0834
CA -7.83837 -20.3875 59.9512
CA -26.1638 -21.4668 47.2054
CA -25.2062 -22.9751 36.4993
CA -4.09932 -14.4147 42.6508
CA -3.06222 -8.11697 42.7988
CA -23.2462 -19.428 37.8232
CA -1.82262 -6.69821 18.5529
CA -9.40127 -43.0954 70.8946
CA -0.736568 -8.37504 34.5137
CA -12.2546 -43.1285 70.3353
CA 14.4866 -1.28464 54.0496
CA -10.7459 -7.83347 25.4118
CA -19.9195 -11.2113 55.4348
CA 2.3845 -27.2963 45.372
CA -14.417 -18.9438 40.3152
CA -3.94097 -14.0081 18.6513
CA -11.928 13.9654 23.8697
CA -3.36805 -15.3845 27.6192
CA -13.0138 -6.07816 15.7997
CA -7.50408 -8.6985 50.828
CA -2.5216 -12.7957 16.3802
CA 2.74104 3.65908 58.566
CA -25.3709 -15.5364 50.4919
CA -2.75335 10.3548 57.121
CA -0.372806 -30.5171 46.2907
CA 3.56871 -3.51164 63.9664
CA -8.73423 15.7609 35.7724
CA 5.40192 -29.3659 52.6188
CA -22.3666 -40.0296 49.5808
CA -13.8651 -25.6078 17.7905
CA -5.92154 -22.6488 47.4602
CA -8.04376 4.16454 49.9893
