489

CA 9.3708 -12.0509 20.1599
CA -2.1613 -26.7435 60.8149
CA -8.26436 -15.2365 59.3358
CA -19.7302 -8.35609 59.3292
CA -6.80315 -12.3057 29.254
CA 8.71526 -28.2933 54.7544
CA -17.9609 -35.3243 48.2037
CA -20.9099 12.2468 25.6959
CA 0.0453276 -37.7173 56.6141
CA -22.685 16.5309 14.3661
CA -22.7356 -3.09134 17.2112
CA -16.1099 -45.9799 52.3248
CA -20.8417 -47.8516 49.5222
CA -28.8594 -20.7332 48.9608
CA 0.59021 -14.4575 61.6849
CA -0.234501 -30.271 62.4536
CA -2.42583 -27.2421 58.3474
CA -7.1179 21.9764 39.0576
CA -14.4971 -40.9897 50.3049
CA -17.1641 -6.37848 56.1935
CA 10.6657 22.9381 47.7955
CA -2.64915 -28.1147 44.3678
CA 12.1908 16.8104 41.5713
CA -19.4755 -45.6411 48.4569
CA 20.7691 1.68154 63.0927
CA -18.8162 1.68803 22.9685
CA -3.2624 -10.8301 30.1417
CA -1.07981 -5.38 24.2472
CA 8.62664 -16.7732 29.2873
CA -19.6378 -38.3992 49.6422
CA -7.21946 20.8492 33.6993
CA -32.5574 -16.1877 40.7428
CA -17.723 -32.9306 60.4467
CA -24.9134 -41.2901 56.2753
CA -38.34 -21.3442 50.4325
CA -16.4244 -14.1428 63.2107
CA -14.7696 -28.262 54.5524
CA 7.66098 -15.9816 66.2844
CA -6.1444 -34.0642 55.7479
CA -23.8801 -8.62865 37.2166
CA -5.01598 -20.434 47.0727
CA -22.7809 -40.0224 52.2922
CA 2.29886 6.61515 56.3697
CA -4.69876 5.29833 51.6777
CA -16.3307 -12.7523 60.9076
CA -11.4902 -7.86915 66.3931
CA -17.4787 6.22826 26.1753
CA -19.9779 -9.97994 48.1577
CA -0.881724 -6.04633 18.0521
CA -19.0728 -9.39017 25.17
CA -6.46989 -19.7061 73.1386
CA -20.9653 -20.9281 48.0974
CA -25.8175 -49.5216 44.7015
CA -3.44085 -21.8055 46.6793
CA -2.96636 -31.6663 56.3781
CA -12.3916 -39.0082 71.4312
CA 4.33751 19.0158 50.3392
CA 7.49855 -17.9586 64.0448
CA 1.62805 4.90539 49.5278
CA -18.0932 8.53519 27.081
CA -8.01366 -11.8322 31.756
CA -7.41676 -15.8969 29.2101
CA -17.0011 -2.71568 29.6183
CA 2.26966 -19.4408 58.5161
CA -1.94196 19.1691 32.1204
CA -26.1291 16.3455 15.3381
CA -9.2834 -29.2288 63.232
CA -17.3807 -35.2835 57.5209
CA -18.8679 -4.7023 57.6666
CA -0.906644 -31.8619 56.176
CA -11.3543 -15.804 33.3266
CA 2.8255 4.96436 55.2338
CA 3.04377 -23.6116 48.3227
CA -2.85308 -20.4303 49.0838
CA -33.1219 -18.096 49.6805
CA 1.34626 25.8928 44.647
CA 2.5769 12.6544 51.6959
CA 9.61239 16.5943 47.99
CA 9.89112 2.87248 47.9202
CA 2.3997 4.81667 65.0951
CA -2.04335 -11.3124 28.7333
CA -4.7715 9.33228 50.3336
CA -29.6546 -12.491 41.5298
CA -8.69261 11.8197 32.9865
CA -7.20594 -13.7904 58.5833
CA -13.9786 -4.59316 17.2895
CA -30.1362 -20.2148 44.3182
CA -8.38937 -9.16075 38.6258
CA -8.27611 -5.25562 35.51
CA -6.41634 -1.86457 56.0684
CA -13.069 -20.5894 63.786
CA 7.36152 -19.0717 39.2404
CA -6.8319 -3.7985 40.5581
CA -9.05183 -25.1456 61.9155
CA 0.547176 -30.562 46.5668
CA 5.63462 3.51685 54.2478
CA -16.1081 -5.37621 22.6166
CA -10.1696 -15.9645 69.0476
CA -0.118682 -23.3591 49.1411
CA -2.519 -30.6535 42.3767
CA -2.28419 -25.8225 42.4398
CA -14.2658 -3.50089 19.2642
CA 0.774631 -7.05646 11.1102
CA 10.6452 -23.3586 26.8774
CA -31.3191 -9.79295 36.7405
CA -24.2046 -12.1225 25.7818
CA 13.5378 -16.474 32.7051
CA 10.2607 17.1127 45.3275
CA -5.76223 -15.4086 71.8486
CA -25.7067 -11.1736 44.2986
CA -29.6237 -49.6566 43.7323
CA -11.7568 -11.5524 54.1557
CA 0.837864 -25.577 50.5083
CA -8.60878 -19.1678 74.3032
CA -0.396813 3.93742 55.3937
CA -3.83606 17.7194 32.0612
CA -21.6327 -11.8116 21.9037
CA -0.829119 20.4538 47.6062
CA 4.17481 2.53207 58.9446
CA 4.42239 3.99414 55.8086
CA -2.23893 -18.8242 55.6373
CA -15.2122 -8.70702 66.4923
CA -23.2891 -44.2628 47.6724
CA -10.9993 -17.8287 24.1734
CA -10.8855 -38.9517 50.6955
CA -2.4747 -12.9477 20.158
CA -9.30417 -18.663 47.9748
CA -9.80763 -6.01921 33.0074
CA -16.5339 -26.2981 27.3884
CA -16.124 -0.0101033 20.2069
CA 31.7 12.9174 46.5372
CA -9.67942 -14.15 27.7603
CA -10.1893 -31.2166 56.0854
CA -2.96361 -30.7843 59.9082
CA -18.8472 -0.687859 29.0128
CA 9.75303 7.02464 37.3238
CA -14.3723 -37.3313 57.356
CA -7.79185 -2.3574 29.0909
CA -29.7131 -14.2994 24.0353
CA -0.880754 13.3949 48.9062
CA -8.19332 -17.8485 65.888
CA -9.5762 -8.2321 49.525
CA -2.47489 5.82103 49.6162
CA 0.352286 -13.3447 25.7131
CA -25.1236 -46.7225 48.8143
CA 0.013588 7.37014 55.4517
CA 1.93896 6.959 46.2531
CA 4.69671 0.0961394 67.26
CA 6.39303 21.0763 47.053
CA -28.144 -11.292 37.1117
CA -10.5539 -40.4184 73.4324
CA -7.38883 -9.17262 54.7754
CA 9.22681 -24.7007 40.5445
CA -7.71271 -4.1182 58.2098
CA 6.85983 -29.3768 45.3201
CA 11.184 -1.4485 68.6856
CA -34.1389 -22.5224 52.4728
CA -4.07957 20.4706 35.116
CA -12.4234 -1.62731 50.6133
CA -2.35567 23.4857 42.245
CA -30.8837 -21.5199 50.4048
CA -16.5377 -38.2733 52.6972
CA -16.524 8.26058 24.6855
CA -12.2817 -17.547 28.5123
CA -16.4513 -41.0372 50.6803
CA -17.9728 -5.56487 29.866
CA -15.9722 -7.38004 62.8647
CA -12.6815 -40.2867 50.3753
CA -9.36333 -32.7377 54.0593
CA 2.97149 4.27012 51.8101
CA -17.6788 -20.2409 64.9685
CA -21.7662 -48.3629 47.3318
CA 0.504798 -22.5 61.8669
CA -5.40927 -8.19765 33.9138
CA -10.3474 -17.9437 62.7639
CA -18.4363 -9.48703 63.5511
CA -21.6023 -0.451222 22.4083
CA -22.7097 -2.11147 14.4213
CA 10.7423 12.5193 40.7143
CA -17.5585 11.3805 25.5395
CA -4.88713 -13.505 25.0528
CA -5.71317 -8.44099 51.3903
CA -0.316343 11.5937 50.5182
CA -16.6136 13.4907 22.7081
CA -3.69046 -35.8542 54.8676
CA -0.902265 -28.2593 63.4374
CA -15.1478 -7.52032 23.6356
CA -17.8948 -11.6832 53.9746
CA -17.9934 2.34272 21.3364
CA -24.6716 -16.7732 21.0831
CA 1.43434 6.34152 50.6395
CA -34.7214 -22.8296 47.8197
CA -4.7868 -18.8789 43.1087
CA -17.6879 -5.44184 65.4343
CA 4.20833 -16.1361 24.5407
CA 2.29433 -18.6991 29.6639
CA 4.80996 6.14345 49.0738
CA -14.1747 14.1518 32.1272
CA -5.14042 22.9369 38.2785
CA 2.40014 3.79869 60.8201
CA -19.033 -0.89551 19.7856
CA -0.437765 9.937 46.4257
CA -25.1278 18.6091 16.3218
CA 0.894758 1.87971 54.9804
CA 11.2275 17.5737 39.6868
CA 8.09752 13.9777 43.383
CA -8.70887 -13.7034 62.6721
CA -2.30484 10.9069 40.3685
CA -10.5813 -16.0461 31.4351
CA -18.9312 -9.46389 54.8256
CA -3.58714 -7.68262 13.2337
CA -23.1019 -20.412 44.489
CA -22.1122 -8.08309 28.6114
CA -7.4825 -6.74071 52.1761
CA -27.9546 -19.5584 44.8344
CA -6.84885 -7.17332 39.4993
CA -11.9615 -9.60332 32.3794
CA -0.127379 15.9898 47.4677
CA -14.5487 -41.4873 52.2991
CA 3.61494 8.95968 47.4878
CA -20.1004 -17.334 62.5639
CA -3.55693 25.4521 42.5028
CA -2.67114 -28.7388 60.3792
CA 0.0923846 -6.08896 69.4141
CA 11.5282 -17.0299 31.3726
CA -14.9181 -13.4547 54.2481
CA -16.8252 -3.68741 25.1004
CA -20.0809 -41.3773 53.7499
CA -12.5725 -14.0185 24.2552
CA -11.2634 -18.0231 64.3228
CA -1.45727 -14.4384 24.2526
CA -1.71478 -42.9094 57.6545
CA 5.49311 -21.0973 37.4858
CA 15.0514 -18.8618 32.7653
CA -6.81797 -19.0446 75.2449
CA 5.41827 -23.7464 52.492
CA -7.85592 -21.0243 48.2363
CA -25.2946 -15.4889 52.21
CA -25.7627 -4.84573 16.7972
CA -6.24539 -26.3754 60.3039
CA 1.24406 -16.2782 20.3759
CA -5.78131 -9.73831 27.1808
CA 7.35436 0.597882 57.7906
CA -34.2421 -18.6062 50.9979
CA 11.9105 13.8682 45.4026
CA -17.9735 -2.84587 21.6395
CA -2.84 -15.0792 21.8942
CA -11.6442 -18.7511 25.6604
CA -18.2654 -12.7811 51.467
CA -15.5293 -35.737 55.8598
CA 2.56403 -21.8094 67.2446
CA 4.20836 -6.82875 67.4001
CA -8.48982 12.517 36.0614
CA 5.36756 -13.9803 20.1897
CA -10.0425 -27.7866 60.5847
CA 2.08513 28.1268 40.4065
CA -2.58859 -1.50742 51.0232
CA -20.8017 -12.6654 43.3632
CA -1.96323 16.571 42.7439
CA -10.7913 14.1714 33.6562
CA -23.5097 -53.2186 43.6702
CA -11.9084 -29.5294 41.9057
CA -1.97319 -7.72309 17.3424
CA -32.1842 -14.4287 44.4228
CA -20.0628 -13.4963 63.9927
CA -5.14796 19.2349 36.5173
CA -2.13229 14.5367 41.7222
CA -3.3657 -35.6714 60.4305
CA 13.9478 -21.3419 35.282
CA 3.69824 -24.5677 53.1705
CA 5.63957 3.71294 48.4576
CA 11.0796 2.15361 51.4153
CA -21.5919 -7.39094 24.2919
CA -14.2911 21.9678 17.9845
CA -26.2442 -9.79859 36.0009
CA 2.65221 -18.2005 36.7418
CA -13.6645 -15.5952 64.497
CA -7.96127 -11.5433 41.583
CA -14.9698 5.79455 25.934
CA 6.83086 -7.11735 21.7884
CA -12.8676 -11.9897 64.4572
CA -15.1717 -33.8126 54.9407
CA 12.1133 3.31753 46.5887
CA -0.655059 11.8082 60.645
CA -8.53883 20.7599 38.0215
CA -19.0063 19.528 23.0788
CA 5.30949 16.8779 50.8525
CA -2.5768 -40.5893 60.1081
CA -1.49718 -24.6382 47.5341
CA -23.6021 -13.0416 49.7064
CA -8.14524 2.16837 44.9164
CA 1.71077 3.09749 53.5767
CA 21.5469 29.9204 41.7391
CA -11.7176 -30.9162 51.288
CA -18.6557 -11.9559 60.0041
CA -10.4679 -17.2558 57.4177
CA -8.97845 -18.4866 45.7313
CA -19.9716 8.99613 28.5927
CA 2.868 5.65948 53.2222
CA 3.91871 -25.6055 37.0924
CA -2.14225 20.9179 31.7077
CA 1.19187 2.30992 49.9709
CA -30.5857 -17.2015 52.3679
CA -15.4341 -33.6072 15.8021
CA 18.925 0.843304 63.9985
CA -1.42719 7.75033 47.6227
CA -2.93161 -2.67593 53.3416
CA 11.7498 15.2971 38.2271
CA -2.42312 -20.4341 44.9369
CA 5.33438 -15.8878 31.042
CA -0.831031 -8.8979 30.3714
CA -14.1753 -1.95777 56.5195
CA -21.9617 -18.9365 50.9996
CA -1.61138 -22.7212 47.5707
CA -15.6541 -9.86829 50.9701
CA -14.8031 -40.3422 71.6744
CA 3.26657 -32.02 52.0433
CA -14.1085 -14.1933 22.527
CA -25.0489 -40.7459 49.3779
CA 1.43845 9.01661 52.1005
CA 6.21374 -28.9673 51.4746
CA -2.9714 -21.5994 51.1627
CA 4.69338 -14.6601 34.2192
CA 5.39569 -14.5555 32.2519
CA -24.8639 -42.4301 52.6781
CA 7.7333 -22.3881 44.9573
CA -22.7234 -14.925 22.2757
CA 2.73453 26.9781 43.9446
CA -13.8337 -15.3411 31.7588
CA 4.70682 -27.0326 48.1758
CA -14.0212 -9.73038 63.7784
CA 0.0531926 -15.3742 24.6507
CA -14.9901 18.2441 29.0648
CA -12.2133 -42.6839 48.5298
CA -11.2756 -28.0229 57.1917
CA -19.3132 -35.2719 58.6686
CA -12.9954 -17.3459 36.2814
CA -21.76 -10.0776 52.2819
CA -3.14721 -19.5984 46.3989
CA -26.4056 -5.50442 40.043
CA -20.9493 -14.6746 43.7699
CA -9.27705 -11.593 28.996
CA -3.42316 19.3977 41.8156
CA -14.3628 12.8327 35.3233
CA -1.19507 -3.00024 47.521
CA -9.69446 -20.8437 65.5248
CA -20.3965 -1.54136 15.6619
CA -9.11225 -1.54968 58.3663
CA -27.9091 -11.9933 19.9801
CA 1.35579 -29.8557 43.4674
CA -14.4195 -11.2126 62.4083
CA -30.2205 -22.7498 47.1525
CA -7.16167 -11.3827 34.5
CA -0.1259 -23.2389 51.0946
CA 6.0594 -4.76271 69.096
CA -26.1904 -53.5796 50.1512
CA -11.7058 -30.7332 60.1519
CA 0.606621 -22.705 32.1759
CA -11.4575 -10.3708 37.0955
CA -4.21603 -13.2259 62.1613
CA -8.21903 19.2796 29.8593
CA 0.962247 8.47656 46.2658
CA -32.5584 -22.3377 50.8963
CA -13.4178 -32.2861 43.838
CA -21.0206 -6.0756 40.9773
CA 2.66044 -20.6723 30.5841
CA -16.962 -0.916314 54.3261
CA -12.8265 -21.1565 27.1512
CA -3.87834 -44.812 55.3873
CA -2.29773 -23.8431 53.5483
CA -14.5748 -43.6535 66.2184
CA -7.42652 -2.31302 58.3094
CA -23.6914 -39.1198 61.4227
CA -9.84033 -6.17461 28.8648
CA 8.43004 5.13386 46.1056
CA 5.19247 -24.0142 68.049
CA -27.5889 -50.6742 45.8753
CA -14.6849 -43.2663 48.5908
CA -15.7843 -35.2935 53.8577
CA 4.25483 -27.33 51.5865
CA -21.4367 -44.9032 54.8228
CA -12.1135 -0.140354 62.0608
CA -23.2595 -36.4399 59.6022
CA 1.48182 -8.77621 23.9204
CA -29.089 -18.7692 48.209
CA -29.5885 -23.5103 48.918
CA 5.73093 -26.7498 44.6386
CA 2.31371 -18.5628 60.4976
CA -34.0731 -18.6585 53.3929
CA -8.17893 -20.312 76.4319
CA -21.4514 -13.2629 62.2122
CA -35.5596 -19.1909 44.3966
CA -4.81379 -36.7335 60.0924
CA 5.14238 -21.5767 67.6315
CA 4.76953 -15.9923 28.5929
CA 9.20163 -18.4549 65.375
CA 0.306011 6.00812 47.7934
CA -17.5636 -3.8975 56.053
CA -18.3247 -14.5068 66.1493
CA -12.8936 -11.0305 24.225
CA -30.4805 -17.057 44.4193
CA -11.5809 -13.1737 34.6264
CA -21.0812 -12.1802 32.8237
CA 2.04216 -6.58812 22.205
CA -23.5107 -6.5968 29.1121
CA -33.1383 -21.6887 49.1089
CA -24.9509 -20.1475 52.4343
CA -36.8517 -22.3696 44.8191
CA -28.0425 -10.959 23.833
CA -18.6542 -18.63 64.3846
CA -11.1054 -14.3331 25.4187
CA -18.9465 -2.94091 64.8636
CA -5.15235 -29.8451 62.7056
CA -13.457 18.8408 20.0473
CA 8.20139 -22.2659 40.8757
CA 4.96024 5.10806 58.3842
CA -17.2798 -9.08325 58.8802
CA -1.47051 -41.3232 50.392
CA -1.81497 21.5193 39.1085
CA -13.2372 19.895 24.7552
CA -14.1404 -38.6619 52.958
CA -23.1779 -8.35719 25.6512
CA 8.73665 -14.0459 24.1382
CA 4.38735 9.61209 44.913
CA -8.71427 -39.5134 57.7147
CA -35.2149 -17.4272 45.5154
CA -18.6105 -13.7989 39.5156
CA -15.3944 -0.433288 27.7626
CA -11.2838 -3.02896 51.4422
CA -10.0548 -28.1974 53.541
CA -5.71487 13.873 34.074
CA -2.86864 -35.2877 58.2871
CA -5.43918 -17.5238 46.4921
CA -12.0368 -38.3934 69.3268
CA -19.5908 -18.0597 46.1513
CA -16.3522 -2.23488 65.1595
CA -12.5969 -17.9687 67.7234
CA -7.16834 -5.44707 42.0977
CA -16.1256 -17.3327 41.5567
CA -2.27512 -36.3442 56.6751
CA -10.3153 -17.6682 33.8406
CA -22.0171 -16.2761 68.5071
CA -7.84643 -4.56778 39.0043
CA -16.3565 3.93916 26.5304
CA -31.3387 -22.8285 52.7543
CA -12.3489 -30.876 57.529
CA -9.09468 -13.5059 66.8582
CA -0.316357 -10.1712 64.8943
CA -3.59055 22.7298 34.4463
CA 5.31861 7.07119 44.4191
CA -10.0909 -15.9935 62.5574
CA 7.71281 -21.9916 27.2705
CA -24.4687 -7.26003 41.958
CA 8.93098 2.99396 52.6671
CA 1.55604 8.00729 43.5415
CA -28.1617 -5.06469 16.3336
CA 4.30817 -24.9649 66.0842
CA -7.71688 -29.7687 61.7806
CA -26.1638 -21.4668 47.2054
CA 1.05197 -27.4349 64.8216
CA 0.0315076 -13.7066 69.4313
CA -0.293425 -8.81468 14.7055
CA -16.7335 -0.707077 25.0083
CA 1.23954 -20.7809 41.8647
CA -13.5922 -4.70147 60.9004
CA -20.7126 -14.2732 47.8807
CA -10.3975 -10.9186 25.8221
CA -5.87327 -10.7167 51.3557
CA -19.5348 -1.79595 27.4197
CA -14.321 -12.8847 65.099
CA -31.9808 -15.9255 47.7188
CA -14.417 -18.9438 40.3152
CA -8.09264 -8.5419 52.8607
CA -18.82 4.49788 63.3297
CA -11.1541 -41.5489 68.9509
CA -11.9911 -11.9911 47.8159
CA 0.261958 23.008 45.2293
CA -11.9177 -0.790566 54.9236
CA -20.3117 -6.0933 23.682
CA -13.5907 -33.7222 57.6559
CA -2.75335 10.3548 57.121
CA 4.30688 -4.23231 62.043
CA 3.56871 -3.51164 63.9664
CA -8.73423 15.7609 35.7724
CA -5.14909 -14.8503 65.0048
CA -22.3666 -40.0296 49.5808
CA -12.3381 -2.40656 53.0906
CA -5.92154 -22.6488 47.4602
CA -2.55888 -21.4502 54.2812
