489

CA -21.57 -3.27513 20.4886
CA 13.2237 21.3144 43.2391
CA -8.26436 -15.2365 59.3358
CA -6.09865 -21.825 44.0462
CA -30.8727 -24.9788 52.4293
CA 5.97823 5.29893 47.6762
CA -33.22 -50.2722 47.9424
CA -20.9099 12.2468 25.6959
CA -4.99946 -17.6681 51.0253
CA -16.792 -1.10425 31.4973
CA -22.7356 -3.09134 17.2112
CA -14.6515 -19.6673 44.5192
CA -20.8417 -47.8516 49.5222
CA -1.35889 -20.1868 51.5521
CA -0.332453 7.35459 42.6814
CA -19.8573 -13.4646 41.282
CA -3.62789 -37.9726 59.7475
CA -7.239 -20.2197 40.0459
CA 1.46131 6.97521 52.9777
CA -0.817607 23.7 31.8215
CA -1.42849 11.2027 57.8693
CA -10.014 -15.686 18.6759
CA 7.73103 -14.6721 60.4539
CA -20.1166 18.076 22.7072
CA 20.7691 1.68154 63.0927
CA 15.243 18.5232 42.4739
CA 2.66767 -23.373 52.9741
CA -15.1803 -15.753 46.3793
CA 10.6301 17.7771 43.4622
CA -32.1098 -48.3243 45.4289
CA -8.51603 -13.9808 30.3781
CA 0.628495 24.4674 36.2283
CA 10.893 -32.917 47.4704
CA -24.9134 -41.2901 56.2753
CA -9.51484 -23.3242 65.5271
CA -7.41541 -1.4424 53.7269
CA -26.833 -14.9694 42.8202
CA 2.66425 -31.8565 59.146
CA -1.60571 17.4797 44.3331
CA -0.786728 22.9667 47.4657
CA 2.23803 -28.0263 51.3475
CA 13.398 18.7048 38.9811
CA -1.20107 -16.8613 25.3845
CA 14.8976 -23.2624 51.0445
CA -10.4182 21.575 32.0451
CA -6.15466 -0.936664 51.7991
CA -14.0161 -10.9663 68.5609
CA -3.68212 20.1547 33.1145
CA -19.802 -18.7657 46.3256
CA -27.0428 -49.6619 49.3532
CA -11.0508 -29.6107 39.9711
CA -13.9615 -26.2091 59.1185
CA 22.279 5.25028 60.1837
CA -27.383 -20.1489 44.0277
CA -5.47797 -15.9245 65.7247
CA -10.8898 -16.9387 74.4109
CA 6.37594 6.06473 40.2951
CA 7.49855 -17.9586 64.0448
CA -24.175 19.7159 20.4334
CA -20.3726 -11.5593 52.737
CA -13.6926 -10.8398 64.1783
CA -23.7042 22.9317 19.7647
CA 1.10135 0.902807 57.1819
CA -15.5415 -20.865 25.6558
CA 7.16077 -33.4765 56.9662
CA -14.2222 -28.0912 56.2392
CA -11.2071 17.8868 27.1737
CA -19.4975 -21.8933 49.3245
CA 5.70858 -3.62361 75.0004
CA -0.906644 -31.8619 56.176
CA -11.9905 -2.47865 54.159
CA 4.75792 -30.3117 52.2525
CA 3.04377 -23.6116 48.3227
CA -2.85308 -20.4303 49.0838
CA -3.61276 -16.3282 50.545
CA 1.34626 25.8928 44.647
CA 2.5769 12.6544 51.6959
CA -13.5004 -10.3634 58.9885
CA -2.88784 19.5538 42.9064
CA 2.3997 4.81667 65.0951
CA -7.64994 -24.4487 50.6063
CA 7.2783 9.20457 45.0957
CA 0.684285 -12.4274 28.5262
CA 0.822581 -30.8121 57.6523
CA -2.33631 -22.7974 43.243
CA -16.8575 15.937 32.1016
CA -8.54866 -27.3944 55.0448
CA -8.23726 -18.4954 44.2581
CA -10.7588 10.0086 34.0955
CA -6.41634 -1.86457 56.0684
CA -1.2817 2.65788 52.451
CA -11.8162 -2.48041 48.952
CA -6.8319 -3.7985 40.5581
CA 7.20622 -26.5446 51.3924
CA -0.250433 10.1014 52.1581
CA -8.05795 -8.57188 65.4911
CA 8.85932 -4.81752 70.161
CA -16.9482 8.44028 16.2242
CA -6.33886 20.3172 31.0594
CA -14.5164 9.61147 33.5191
CA -2.28419 -25.8225 42.4398
CA 3.05675 7.42335 62.5401
CA -26.2281 -52.8273 47.5703
CA -20.3627 -17.2242 60.1506
CA -18.5552 5.37548 29.4945
CA -0.488443 -35.4412 54.3108
CA -8.47864 -24.8962 55.4434
CA 10.2607 17.1127 45.3275
CA -23.1342 -17.2406 45.9898
CA -25.7067 -11.1736 44.2986
CA -13.6481 -0.992294 59.6824
CA -2.5396 -4.42317 17.8415
CA -21.5265 -56.8978 44.5458
CA -18.7453 -10.3538 63.6248
CA -4.65779 -4.3806 16.1455
CA 4.96321 3.45123 61.351
CA -24.1873 -19.8935 70.7542
CA -9.76583 -16.6532 65.9426
CA 2.6147 10.2333 62.8394
CA -26.537 -49.2532 51.0682
CA -1.70606 -27.6797 55.216
CA 13.7529 17.8825 43.562
CA -23.2891 -44.2628 47.6724
CA -20.1419 -13.4877 56.8398
CA -13.9664 -16.965 62.7123
CA -26.8069 -53.4923 51.0647
CA -17.7982 -1.35825 53.8908
CA 7.34896 -23.6913 44.5104
CA -11.3288 -31.5332 53.7438
CA 7.37798 -25.6592 66.8278
CA -10.634 -1.14938 43.5762
CA -16.6181 -12.7183 52.3052
CA -32.8356 -17.6979 52.261
CA -2.96361 -30.7843 59.9082
CA -11.0098 -28.8569 36.6968
CA -12.599 -43.8307 75.6457
CA 0.386847 -20.233 52.6
CA -17.9346 -13.7071 53.0659
CA 0.658105 20.5434 43.7236
CA -4.84255 -36.6639 57.7504
CA -12.853 -5.32128 48.288
CA -8.35468 24.0598 37.8767
CA -12.9305 -39.4133 49.4981
CA -4.50444 -20.0062 44.6287
CA -8.49349 -5.38647 39.055
CA 3.77476 5.31527 42.4443
CA -7.15048 -19.317 30.2678
CA 4.69671 0.0961394 67.26
CA 1.92283 -9.76376 31.4248
CA 10.0451 -20.8228 49.0018
CA -1.90503 -7.53208 20.302
CA 4.02597 -4.17426 56.7017
CA -19.8827 -37.8024 57.8207
CA -5.34873 -0.872678 39.7983
CA -13.7574 -7.11121 36.1527
CA 11.184 -1.4485 68.6856
CA -9.14633 -35.14 48.7624
CA -1.12479 27.3115 47.7284
CA 3.3001 -16.9644 19.2635
CA -1.02868 -23.1597 54.4981
CA -5.23108 -12.9596 39.0077
CA 10.4335 -26.5788 55.7327
CA -31.1075 -49.7658 48.8125
CA -0.990278 -28.9009 70.2503
CA -25.2215 -21.1567 71.5707
CA -1.60098 -32.1257 67.2386
CA -8.70574 -18.946 32.1349
CA 3.4695 -20.6897 49.4322
CA -10.0539 -15.8135 34.9365
CA -5.35928 -27.9622 61.0834
CA -3.12061 -22.085 54.9866
CA -6.19184 27.1151 47.2026
CA -13.5988 -0.565619 54.2114
CA -5.40927 -8.19765 33.9138
CA 3.85457 16.6164 46.1455
CA -2.66092 23.0753 32.1537
CA 8.74845 -20.3433 47.7645
CA 0.917305 -14.2621 50.4042
CA 4.7198 -28.3861 42.2413
CA -6.72116 -5.30331 52.4382
CA 4.76619 -0.684816 57.8266
CA -4.57738 -35.7819 60.6661
CA -0.316343 11.5937 50.5182
CA -33.3591 -22.6424 55.2998
CA 8.51646 -19.8667 51.167
CA -0.902265 -28.2593 63.4374
CA -15.1478 -7.52032 23.6356
CA -17.8948 -11.6832 53.9746
CA -28.9815 -51.9988 46.1947
CA -5.57273 -15.5959 63.4603
CA -15.261 10.3071 36.6785
CA -17.4186 -17.7893 45.4368
CA -12.1516 -16.2451 47.4804
CA -8.45072 -10.5245 59.8274
CA -18.8643 -10.5427 40.0569
CA -5.12783 -19.1414 40.1273
CA -12.5602 6.83361 26.8437
CA -36.6543 -18.0805 46.1786
CA -28.9163 -52.5795 49.8417
CA -15.8758 -39.4039 48.3496
CA -18.7913 -38.5649 55.9774
CA 0.17977 -12.5905 18.6528
CA -25.1278 18.6091 16.3218
CA 0.894758 1.87971 54.9804
CA -17.2698 -41.2541 76.9436
CA -5.17544 -3.53469 21.5968
CA -8.70887 -13.7034 62.6721
CA -19.4143 -10.7658 60.5469
CA -10.5813 -16.0461 31.4351
CA -3.07164 8.46953 47.1698
CA 13.0378 14.6317 49.004
CA -1.68702 -26.24 62.401
CA -0.216163 -36.7769 53.0316
CA -7.23277 17.4814 31.039
CA -8.01625 -25.7858 58.3114
CA -6.84885 -7.17332 39.4993
CA 6.78705 -4.57224 72.9486
CA -13.7507 -11.4513 20.8954
CA 11.4957 24.286 44.9272
CA -13.8002 -12.892 40.853
CA -1.04024 -16.7864 50.2241
CA -3.55693 25.4521 42.5028
CA -2.67114 -28.7388 60.3792
CA -10.744 -41.6276 52.2732
CA 1.8874 7.84687 40.3107
CA 8.72373 -14.7537 57.0871
CA 3.37121 0.357108 72.0615
CA -14.3515 3.13213 59.1413
CA -21.6264 -38.5008 57.2796
CA -15.763 -13.4588 60.9327
CA -6.96984 -16.1632 40.0765
CA -17.8944 -14.7296 18.9234
CA -19.4913 -3.13451 13.6236
CA 15.0514 -18.8618 32.7653
CA -3.61114 -21.63 44.7756
CA -5.82514 -8.35295 23.8609
CA 4.35132 -11.2499 21.2611
CA 2.17763 14.3565 43.8184
CA 1.79711 10.8122 51.216
CA 6.15274 -33.7363 60.0909
CA -1.33201 -30.9529 69.6223
CA -26.6583 -10.9221 41.9772
CA -6.32008 -10.0897 67.0514
CA 2.97924 -32.0835 56.7336
CA -0.00604599 -9.47573 33.2668
CA -7.32511 -6.31446 19.51
CA -2.84 -15.0792 21.8942
CA -30.7394 -19.8293 51.3273
CA -15.1058 6.33114 65.7532
CA -4.90387 -15.2066 60.085
CA -6.42976 -7.32708 17.9832
CA 4.81202 -31.132 41.8028
CA -5.7203 -18.6134 32.8393
CA 0.025809 -4.17594 18.4556
CA -2.42211 -12.354 12.1369
CA 2.08513 28.1268 40.4065
CA -30.9335 -16.5516 41.8059
CA -4.00079 -20.9634 51.899
CA -2.80098 -29.4249 65.3366
CA 0.573121 9.95455 48.916
CA -12.873 20.1465 29.9053
CA -11.9084 -29.5294 41.9057
CA -6.76811 -9.37131 28.4762
CA -5.23851 -10.034 29.3441
CA 1.0475 -26.6005 49.7509
CA -14.6172 -11.2107 39.4969
CA -17.1627 9.78475 28.0761
CA -6.71392 -26.814 44.7595
CA 13.9478 -21.3419 35.282
CA -23.5573 -15.6553 63.8517
CA -10.3913 -13.0243 47.6464
CA -0.0117001 18.4324 48.849
CA -16.7926 -22.5311 27.1574
CA -1.24506 9.93233 49.649
CA 1.52292 -28.587 66.8876
CA -4.78944 -7.71336 40.6605
CA -4.86191 -3.26464 41.2238
CA -14.3091 20.4322 22.4168
CA -16.436 -15.4307 61.267
CA 0.929772 -28.0464 41.0992
CA -6.2788 -11.5777 64.2098
CA -28.4439 -20.5626 41.843
CA 12.1133 3.31753 46.5887
CA -0.360708 8.29667 44.4225
CA -2.14574 -16.2575 52.7352
CA -12.8747 -37.2901 49.1235
CA -22.8267 -19.7779 49.3238
CA -16.7741 -38.2782 57.5388
CA -11.4982 -0.271148 28.1833
CA -7.2774 23.6425 35.5311
CA -28.6494 -27.9371 50.048
CA 2.6823 -16.3566 30.523
CA 10.5597 11.872 41.6751
CA -8.91995 -10.7771 34.1444
CA -23.0446 -51.2217 48.8287
CA -29.0489 -15.5714 44.7299
CA -9.53184 -22.153 56.0008
CA -0.894925 -17.095 23.3383
CA -8.17016 16.4941 20.2154
CA -4.14446 -13.6959 53.4515
CA -8.33674 -17.562 75.2664
CA -8.00875 18.1138 22.0076
CA 4.6376 11.7277 47.1801
CA -10.036 -6.67313 58.2124
CA 3.14782 -29.5842 44.1136
CA 10.9521 -11.582 24.9766
CA -2.93161 -2.67593 53.3416
CA -14.8609 6.89079 20.4028
CA -8.35463 -6.12765 44.6508
CA -8.45015 -1.1642 52.0764
CA -19.5431 16.8324 28.1165
CA -20.7912 -33.9626 61.3468
CA -3.79899 -23.8048 54.992
CA -9.53124 0.373777 45.868
CA -15.6541 -9.86829 50.9701
CA -32.8518 -18.2314 40.49
CA -17.9692 -19.8526 66.8015
CA -13.6903 -14.9309 58.6414
CA -33.2768 -11.5565 46.5642
CA -2.2194 -32.8942 63.9322
CA 6.21374 -28.9673 51.4746
CA -15.4106 -3.73071 33.5847
CA 4.69338 -14.6601 34.2192
CA 4.95022 -16.7735 67.6051
CA -24.8639 -42.4301 52.6781
CA -31.2271 -24.6518 54.9378
CA -22.7234 -14.925 22.2757
CA -18.545 -50.6526 51.8223
CA -13.8337 -15.3411 31.7588
CA 4.70682 -27.0326 48.1758
CA -29.9224 -51.5983 48.3723
CA -12.7195 -28.7346 58.4184
CA -5.27235 -10.0439 35.8267
CA -0.479961 -25.9665 53.7004
CA -17.1439 -3.44616 12.0579
CA -2.27513 -14.201 66.4104
CA -11.1277 -34.0437 51.7652
CA 7.58394 7.94574 51.5244
CA 3.12064 -26.3107 65.1633
CA 25.8623 7.07005 61.3829
CA -20.7724 -5.34181 54.8117
CA -22.1079 -19.3827 45.5059
CA -13.2095 -21.1454 30.9349
CA -14.3628 12.8327 35.3233
CA -2.28801 -36.4039 63.5777
CA -5.57966 -16.6072 44.9006
CA -2.04937 -3.21565 19.642
CA -14.1738 -17.7366 19.1096
CA -2.45834 -5.81417 35.0715
CA 1.35579 -29.8557 43.4674
CA -14.4195 -11.2126 62.4083
CA 5.2484 1.99504 56.3443
CA 10.351 6.57565 53.9393
CA -19.2045 -32.4699 65.4877
CA -26.6545 -14.0647 44.8412
CA -11.6135 16.9456 30.9979
CA -15.7552 -19.6282 41.8501
CA -16.7716 -11.5422 41.3149
CA -11.9131 -16.9731 62.5196
CA -4.21603 -13.2259 62.1613
CA -4.843 19.8526 27.53
CA 0.789421 -3.10799 24.3224
CA 2.89831 -16.7174 47.2903
CA 1.11919 21.3586 45.8509
CA -21.0206 -6.0756 40.9773
CA -5.19794 -31.1865 65.0355
CA -11.4233 -12.2471 28.4292
CA -8.1269 -24.942 52.3576
CA -17.2642 20.4565 19.573
CA 8.74131 -29.4897 52.0549
CA -7.57131 -15.8952 46.496
CA -7.42652 -2.31302 58.3094
CA -23.6914 -39.1198 61.4227
CA -22.1677 -37.3924 59.7508
CA -3.95095 -6.74871 29.6644
CA -9.32782 17.9605 26.4078
CA -1.94146 24.9495 47.4606
CA -6.67603 -18.2381 48.266
CA -15.7843 -35.2935 53.8577
CA 13.6657 17.2868 45.7925
CA -2.71575 -18.2091 49.9425
CA -14.8757 6.34051 24.5502
CA -20.3402 -21.6359 29.0341
CA -2.23095 -22.084 56.8606
CA -25.0672 7.04361 25.7897
CA 1.52328 -9.27783 68.6174
CA -16.7524 -22.8786 47.2336
CA -25.7874 -13.2017 48.7009
CA -8.09456 20.3347 28.6125
CA -19.3694 -4.89963 33.3734
CA -3.76187 -27.6232 45.3192
CA -4.48492 -16.383 40.3073
CA -29.0973 -18.237 44.1932
CA 5.14238 -21.5767 67.6315
CA -9.71278 -17.2935 40.6273
CA -8.60656 -4.35395 48.0146
CA -11.1052 -33.9608 54.0494
CA -9.06101 -0.90989 54.4812
CA -14.9467 -3.81986 24.1352
CA -3.03273 -16.9104 62.7796
CA -8.53251 -22.2682 28.9893
CA 9.8336 5.85321 51.797
CA 8.28912 8.46045 47.7103
CA -4.27571 -19.1919 53.1464
CA 0.0765521 10.3118 54.9083
CA -0.997013 14.487 47.6093
CA -0.993276 22.1599 44.8948
CA -36.8517 -22.3696 44.8191
CA -6.54626 -22.7427 54.0513
CA -18.6542 -18.63 64.3846
CA -19.3301 -7.38177 22.8797
CA 2.08991 8.95671 53.4474
CA -5.15235 -29.8451 62.7056
CA 13.1846 -0.577475 68.3365
CA 5.34189 -8.35923 70.9344
CA 1.29102 -1.06609 56.3454
CA 13.6306 -22.6156 55.7115
CA -12.9945 18.5236 15.5589
CA -21.3076 -54.1662 45.8163
CA -6.75339 -20.7777 45.5414
CA 6.50503 4.97184 49.5457
CA 10.6889 15.6578 46.6037
CA -2.76824 -15.3123 59.8347
CA -11.666 -26.5103 45.4563
CA -9.71162 -0.371074 50.5956
CA -14.2119 -36.9948 54.7065
CA -4.87729 10.8086 51.73
CA 0.118484 4.1756 55.2073
CA -0.439491 5.99259 44.3505
CA -13.7869 -14.8762 55.4408
CA -4.81599 -21.0717 54.8352
CA -32.3588 -14.745 49.7123
CA -5.43918 -17.5238 46.4921
CA -10.1352 -23.996 51.1408
CA -23.6387 -1.24031 24.4275
CA -7.65044 -34.1163 50.8305
CA 11.9941 -17.7997 35.934
CA -3.0802 -21.2047 73.6934
CA -14.1616 -1.25876 29.226
CA -38.6362 -25.2122 45.3348
CA -31.5546 -19.0139 45.5594
CA -22.0171 -16.2761 68.5071
CA -8.94541 -18.1437 68.9886
CA -35.6738 -11.0389 44.5227
CA -26.8011 -51.0064 52.142
CA -17.5222 -0.7894 56.5254
CA -9.09468 -13.5059 66.8582
CA -14.6513 -1.82771 32.6447
CA -3.59055 22.7298 34.4463
CA -8.18509 -3.4879 29.1878
CA 17.3958 17.9896 42.0806
CA -4.53198 -22.5134 53.6194
CA -14.3139 6.36849 62.236
CA 8.38529 3.97771 49.6106
CA -11.1564 -5.46917 22.9618
CA -5.63139 0.544674 48.5294
CA -2.45961 -25.7008 60.8584
CA 5.18289 -12.2961 31.32
CA -13.1017 -23.9342 32.3058
CA -0.688379 -16.1839 21.1414
CA -23.2735 -11.276 49.0463
CA -8.28994 -25.2707 76.1068
CA -16.7335 -0.707077 25.0083
CA -9.46954 -10.8364 61.5784
CA 8.69909 17.2464 37.6755
CA -17.7955 -13.462 44.4593
CA -9.65476 22.9475 29.6566
CA -15.4072 -5.60243 36.6002
CA -19.5348 -1.79595 27.4197
CA -5.70825 -7.16455 29.1615
CA -18.7426 -12.2566 55.9947
CA 0.939886 -24.9514 48.8999
CA -6.72717 -3.75122 56.48
CA -18.82 4.49788 63.3297
CA -19.3209 -1.81229 24.5889
CA -11.9911 -11.9911 47.8159
CA 2.20597 19.6276 46.5448
CA -11.9177 -0.790566 54.9236
CA -7.21205 16.8632 28.7522
CA 2.44499 -6.74744 24.0255
CA 8.13455 11.6007 46.7369
CA -32.1194 -18.5711 50.0933
CA 15.7907 -18.6495 36.0899
CA -18.0895 -15.862 47.6748
CA 6.16819 -14.0111 62.6558
CA -30.4458 -22.7385 51.063
CA -6.23234 -19.9092 50.1541
CA -18.5085 -14.8721 55.5214
CA 3.74624 8.32662 55.0158
