489

CA 9.08499 -23.553 64.6067
CA 16.5115 8.59105 31.2493
CA -18.5895 10.3448 50.3045
CA 20.0435 22.9393 66.7892
CA 23.6299 25.9882 75.9849
CA 9.98256 -17.0934 74.1711
CA -1.86212 -19.8846 37.3284
CA 1.29094 -23.4998 34.2331
CA -3.50946 -24.7939 32.3656
CA -18.692 -28.713 33.8793
CA 13.6005 8.51604 26.447
CA -18.874 -27.0829 25.3301
CA 30.0963 17.8299 56.0534
CA 5.19086 -1.53883 70.532
CA -21.3444 -15.4943 38.0812
CA 6.36503 -18.5329 29.5947
CA 32.1174 11.8315 56.4483
CA 28.7648 -11.7368 45.744
CA 3.04518 10.2456 57.1078
CA -7.83905 -37.507 47.5592
CA -5.38401 -27.1546 65.2552
CA -13.8118 18.0665 77.9577
CA -19.8902 -16.3674 19.2716
CA -20.4507 -0.212738 30.1892
CA -6.18757 0.0788042 22.9716
CA -3.57117 -18.1805 21.933
CA 10.4539 26.7722 44.1717
CA -2.79391 -29.3827 29.0576
CA -4.26983 9.40693 65.8356
CA -12.9454 -28.2011 66.4737
CA 19.2129 7.3247 81.9542
CA -5.0048 -2.70909 17.8863
CA -8.82801 -11.826 18.4192
CA -16.4621 -4.16239 33.7829
CA -18.963 3.75839 55.4395
CA 8.03425 -19.713 82.9982
CA -12.6196 -16.2546 10.2242
CA 6.13733 30.1253 45.2031
CA -21.0707 -7.28308 39.9322
CA 27.6763 16.4533 56.0703
CA -15.3014 -22.6907 29.3556
CA 3.0999 -9.81156 77.0037
CA -6.55265 -5.51328 20.8795
CA 0.916687 -25.2865 37.6337
CA 2.75345 -11.9366 76.2907
CA -2.62747 5.14434 72.5203
CA 22.5541 18.6413 58.1228
CA -9.92539 -18.2128 13.0627
CA 27.2007 -9.29082 55.3821
CA 12.5666 -11.4562 74.5359
CA -8.65504 -12.979 23.2812
CA 25.5781 -29.0836 41.8515
CA -0.983112 12.5723 76.6858
CA 29.5256 -7.13445 64.2007
CA -10.9797 28.461 57.5788
CA -5.29633 7.11299 66.337
CA -1.73616 5.80098 24.2455
CA -12.0423 -23.6404 31.0992
CA 14.8867 8.8438 30.4895
CA -0.147245 -8.72847 15.9777
CA 6.20913 -13.8515 28.7188
CA -25.9487 -16.1722 71.103
CA 2.55084 -25.1882 36.4643
CA 13.7932 -10.0412 23.6455
CA -21.6317 1.6814 29.9185
CA -21.0192 -29.4462 47.6978
CA 25.577 -17.4267 38.8227
CA 13.6111 8.62606 93.1605
CA -6.01868 -17.3981 38.6659
CA -12.9223 17.4943 62.7475
CA 26.8127 -30.0821 43.0663
CA 8.59973 10.5583 74.7051
CA -1.18352 -32.4261 67.707
CA 22.7853 -19.0719 35.8714
CA 8.60507 -16.1273 27.3891
CA -8.62617 -23.9518 18.195
CA 21.9706 23.2495 65.1872
CA 2.09715 38.8483 62.6341
CA -15.0835 -14.2731 13.3668
CA -17.5769 25.2746 39.7528
CA -5.6728 23.2401 58.2716
CA -17.4273 -7.72691 55.5483
CA -21.5511 -3.14154 41.2094
CA -10.6626 -15.3498 21.2386
CA -24.6071 -7.47888 37.307
CA -7.99601 -26.1047 30.0148
CA -19.8683 -1.87301 24.6328
CA 12.7963 0.648874 50.4857
CA 30.2297 -30.1546 40.4238
CA -16.7685 -30.3863 25.469
CA 12.261 5.20285 50.6671
CA -19.8873 -9.66436 44.196
CA -2.61327 -21.4754 64.0377
CA -13.154 -13.2763 12.7612
CA -33.5718 -0.46043 71.555
CA 13.6081 11.6468 35.6219
CA -4.75065 -6.54899 10.5257
CA 6.02553 8.19891 56.6487
CA -14.5619 -26.2792 25.4633
CA -10.8672 -13.7268 16.8104
CA -23.97 -11.2415 32.2776
CA 4.28828 29.2154 37.5445
CA -1.60077 -25.1751 37.6091
CA -14.6856 -25.753 67.3552
CA -6.18508 -21.4319 25.888
CA -10.7095 -23.4974 32.8169
CA -8.29135 13.4989 46.6788
CA -5.52229 11.8076 67.3983
CA 6.93761 0.960549 66.4582
CA -20.871 -12.5056 38.297
CA -6.06886 -20.5936 60.931
CA 34.9594 7.86116 37.4495
CA -17.2703 -20.7434 20.1065
CA -20.5334 23.8638 62.6385
CA 23.6324 -12.6311 56.4621
CA 0.896079 -26.4708 46.1802
CA -18.5233 -19.0572 19.0181
CA -9.93935 -22.4666 49.8323
CA 3.76754 1.453 68.0083
CA -15.4089 -26.4609 64.6645
CA 0.982432 4.22087 21.7028
CA -2.12388 -22.5325 31.5912
CA 1.35265 13.962 68.974
CA -15.2984 -6.02254 35.044
CA -8.48659 -26.1796 17.5197
CA 27.0765 15.084 46.0602
CA 17.2432 -0.883724 8.41793
CA -3.20767 -9.91197 29.2903
CA -5.45347 -5.22332 24.0218
CA 4.59718 -2.27533 32.4406
CA 21.1659 9.96261 83.2926
CA 26.2772 20.1808 56.9922
CA 4.8654 38.3457 61.418
CA -16.3731 -14.6225 15.335
CA 4.14635 7.77348 58.8888
CA -13.2077 3.60183 38.2125
CA 36.8346 9.40918 33.8642
CA -28.4367 -5.07882 26.5789
CA -12.467 2.26459 55.8191
CA -9.52075 -30.7068 48.8335
CA 24.5921 -26.0658 34.3488
CA -20.3994 24.7783 38.5614
CA -7.24338 -19.2054 19.3642
CA -11.4701 -19.255 21.9206
CA 4.22998 -26.8415 40.9575
CA -29.543 8.99198 40.7768
CA -4.54091 -20.5039 30.0803
CA 9.89022 2.25247 26.6367
CA -12.211 16.7596 78.2051
CA 15.25 26.2879 46.665
CA 27.873 13.5948 51.8031
CA -8.57986 -34.746 35.2795
CA -6.65629 -32.2857 63.9754
CA 28.3877 10.8048 56.0387
CA -13.6716 20.793 62.8212
CA 33.8111 7.87238 35.3753
CA -2.34043 8.59674 68.1691
CA 19.8368 -18.3548 36.8033
CA 16.2258 12.2535 76.0629
CA -12.4503 -33.8591 48.5714
CA -11.0249 -30.0821 43.2992
CA -11.3892 -22.6861 25.1496
CA -6.55918 11.5835 68.8625
CA 19.2547 3.54231 37.6956
CA 14.0696 5.42628 22.0445
CA -3.2602 -32.7181 36.1535
CA 6.85069 4.97294 21.445
CA -30.1881 -13.6011 72.7685
CA -5.54641 16.0689 24.2952
CA -9.58852 -6.76293 24.3203
CA -28.5251 15.5875 41.5365
CA -3.61967 27.6847 57.5258
CA -5.39798 19.364 22.1022
CA 4.17776 10.6278 50.9419
CA -22.7876 -8.44927 37.5269
CA 13.1291 17.1251 38.181
CA -16.2076 -23.1968 32.8274
CA 23.1196 -4.42887 60.5087
CA 13.6653 3.93019 23.2726
CA -11.4081 -15.6391 15.3233
CA -8.01138 -23.5013 63.1861
CA -18.9274 8.94992 38.2361
CA -4.37487 -34.3793 34.1653
CA -1.52125 3.57987 46.2145
CA -20.2559 -4.41098 37.3472
CA 12.2107 2.32384 27.7498
CA -5.97787 -16.8992 29.7198
CA 28.3602 -29.3023 41.2421
CA 8.87809 -14.4025 71.8857
CA -23.0627 -5.60583 43.3089
CA -2.27494 3.68277 43.9738
CA 5.99553 -19.4913 78.3995
CA -23.7096 -14.1988 35.3847
CA 12.4138 40.7509 63.5888
CA -5.23978 15.0875 26.2527
CA -12.2567 -21.982 32.3585
CA -34.2133 0.495181 67.3331
CA -6.3162 -35.8923 67.5631
CA 35.2224 14.1823 51.4372
CA 24.8239 -23.4712 37.1048
CA 5.54151 9.91344 71.8037
CA 4.40371 0.0940478 70.128
CA 23.6302 -18.9004 38.8306
CA 41.967 -13.5958 33.0855
CA -19.174 6.65753 48.1869
CA -20.6687 -14.9529 40.4666
CA 11.0515 -24.336 61.3422
CA -1.24655 -34.9823 42.9315
CA -12.02 -0.475505 48.2186
CA 15.7219 4.38951 26.4949
CA 13.3155 23.9252 29.1638
CA -0.143504 -26.2512 41.131
CA -3.08974 -25.1581 30.1837
CA 6.8917 5.13692 25.8065
CA -1.20392 -22.8419 63.4307
CA -12.7326 -30.2061 53.9641
CA 6.16211 -26.2517 43.4852
CA 14.5361 10.1247 32.5247
CA 17.3463 19.4895 49.6939
CA -0.0297143 6.18132 71.3553
CA -1.44293 -29.8636 64.1661
CA -17.6714 -30.5807 55.054
CA -25.8958 -3.41872 32.4868
CA -24.8537 -5.8729 39.4975
CA -13.5304 -19.1112 16.8559
CA 24.9962 -13.5583 55.5276
CA -7.30002 -2.61202 25.2621
CA -9.84532 -30.3447 45.9285
CA 10.1461 -19.5444 61.1055
CA 35.7221 7.52073 42.8812
CA 10.9345 3.50472 30.3308
CA -17.8418 -7.17732 68.84
CA -24.9662 -11.232 38.4987
CA -4.33367 22.1958 55.3318
CA -19.1103 -1.72383 55.6419
CA 14.1965 -27.8872 56.8211
CA -15.2857 18.7323 62.1492
CA -17.2996 -14.7863 33.7302
CA -1.74789 -6.42956 14.7779
CA -29.2127 12.8932 41.3051
CA -6.50257 -3.49237 23.5399
CA -5.17933 -28.0535 54.4499
CA 2.40181 -18.3904 61.4524
CA -28.6522 -12.3404 69.9578
CA -15.9553 -5.39021 32.5504
CA -18.3731 3.86751 44.5797
CA -4.42694 -25.4154 63.234
CA -0.0992782 -28.528 40.7208
CA -13.6048 -25.4187 35.0914
CA 8.34325 -18.3141 77.7112
CA 2.69838 -12.5065 59.0566
CA -11.5946 15.5362 70.5317
CA 1.45735 11.2618 76.3546
CA 0.859685 -4.22751 64.4246
CA -18.7675 -14.0106 41.4438
CA -24.1096 -9.21873 70.7357
CA 25.138 13.8191 67.7268
CA -7.2852 -4.19658 18.9895
CA 26.1411 -8.0974 62.1921
CA -23.9447 -27.5151 46.8552
CA -4.8643 -21.2398 32.3665
CA 21.2919 6.79895 81.0319
CA -3.19759 -9.804 12.3
CA -29.0508 -12.2521 61.1914
CA -22.8142 -1.12241 29.5451
CA -5.91316 -28.8699 33.3548
CA -2.56047 15.2296 22.3652
CA 10.2912 -9.96672 22.0301
CA 6.65402 17.1786 39.8054
CA 14.4793 25.4614 44.8042
CA -9.1307 18.9066 79.4471
CA 7.73241 13.0873 74.5829
CA -8.84158 -36.5621 36.0708
CA -15.7657 -29.8959 36.219
CA -11.6539 -26.9706 35.772
CA 26.7802 -13.4088 62.0481
CA -3.20246 18.0388 26.3336
CA -25.2029 -29.3155 46.7781
CA -28.9076 11.9947 43.6901
CA 6.27211 17.5103 64.362
CA -21.5668 6.10246 34.1987
CA 8.35833 -5.07435 29.953
CA 0.469183 -29.9666 68.4085
CA -6.82887 -29.0408 50.5003
CA -4.4484 7.92564 68.0412
CA 38.92 -14.9569 33.7452
CA -15.3609 -24.6222 44.0186
CA -20.0975 -2.74035 26.5437
CA 30.0415 15.0771 56.0673
CA -22.8764 -4.43413 35.354
CA 26.3884 -8.62913 60.1701
CA 10.9723 14.8769 35.9041
CA -4.29237 -18.1025 41.3305
CA -6.1341 -16.5989 32.8854
CA -22.1331 -10.5314 38.4756
CA 18.3059 20.4345 39.3627
CA -16.6448 -21.1715 54.4609
CA -15.9268 -18.7443 35.0053
CA -13.5247 8.89098 49.0674
CA 12.1495 -5.17538 14.1453
CA -15.1565 -29.2095 52.3807
CA -8.323 -6.13256 18.1314
CA 8.63068 -16.3053 78.8002
CA -6.98647 -2.4811 49.4791
CA -12.0195 18.7554 66.0617
CA -18.9489 -24.2371 46.5934
CA -6.35778 12.8355 45.1771
CA -26.1658 -9.18249 39.9697
CA -6.12266 -6.8819 16.2735
CA 25.8807 -2.93248 48.0845
CA -20.8557 -7.46468 26.3448
CA -8.01477 -29.3988 52.4712
CA -11.4983 -32.2947 49.2889
CA -16.2104 -24.847 55.6341
CA 5.17378 -1.1321 30.3279
CA 30.0621 8.43566 56.3378
CA 18.5713 6.35291 77.7569
CA 10.7123 19.6417 29.9416
CA -13.3844 7.73621 72.4168
CA 4.13874 19.1332 36.4357
CA 13.5352 2.42645 25.895
CA -17.2977 -18.596 36.8828
CA -1.7793 15.2618 75.0898
CA 19.4517 21.4952 54.8859
CA -19.475 7.80819 36.6299
CA -13.2904 -16.7801 19.9208
CA -16.8693 1.04057 50.2108
CA 5.87859 -23.3842 78.0198
CA 22.525 -14.8806 33.917
CA -16.5568 -22.9136 35.3199
CA -17.6559 -25.42 57.0166
CA 5.81942 -1.94189 28.8318
CA -16.3556 -29.4535 45.9507
CA 19.7082 -16.7394 35.6841
CA -2.04287 3.58484 22.9199
CA -12.7872 22.9483 66.335
CA -7.70341 -31.2876 38.9646
CA 24.8904 9.3 53.4916
CA 17.9971 -3.31807 43.208
CA 6.69562 -25.9399 46.7494
CA 12.8231 6.30875 28.8794
CA 9.8017 -11.5874 18.4986
CA -9.68768 13.7441 68.0188
CA -18.518 -20.0269 32.7878
CA -7.68703 5.5367 68.4118
CA -2.88566 -23.5058 33.7784
CA 24.9771 7.46941 26.1132
CA -16.8793 1.84061 53.7404
CA -7.04969 -1.76129 17.4758
CA -8.82359 9.70721 63.8268
CA -19.6884 -8.09816 41.2942
CA 26.8953 -18.8882 37.7327
CA -20.7963 -17.8064 20.3184
CA -10.2575 -33.1063 63.4789
CA 25.761 11.0172 49.8369
CA -22.4146 -12.5504 40.6187
CA -7.44276 -32.8906 41.6937
CA 0.4394 -11.3668 76.5107
CA -25.9318 -24.9296 48.0864
CA -0.592458 5.44915 21.9708
CA 11.4082 35.9452 51.6352
CA -12.3509 22.1149 68.4598
CA -9.20372 -15.4757 62.9233
CA 1.49183 13.7721 80.9047
CA -19.4229 4.49386 33.1735
CA 9.1664 -27.4807 48.3876
CA -22.673 -36.4018 46.3917
CA -13.6575 -14.8307 17.5244
CA -18.2804 -21.9937 40.4262
CA 25.6074 -16.9033 36.6111
CA -8.89158 -7.19561 20.1914
CA -10.2784 -29.4761 47.5325
CA -16.2204 -21.3474 33.2915
CA 7.16215 26.8434 42.1049
CA 38.8813 -14.6597 35.5341
CA 8.68693 -18.1981 74.8771
CA 2.26028 -0.0966422 67.5405
CA -8.46918 -22.967 60.3208
CA -12.6935 5.12333 50.6706
CA -5.82434 -2.77541 20.8677
CA -15.9748 -0.382323 27.1212
CA -8.89939 -28.9042 63.3074
CA 8.87884 14.9267 40.2154
CA 13.142 28.1498 41.703
CA 7.73895 -11.427 75.6747
CA 22.0304 -22.5534 39.0991
CA -11.6009 -21.1295 63.4143
CA -9.80197 0.673088 59.5084
CA -5.6028 -2.38422 27.1154
CA -5.2861 3.72711 42.9934
CA -15.0669 0.806462 45.1409
CA -12.3843 8.05179 52.4891
CA -3.51022 19.6043 24.7211
CA -25.9925 -7.93121 60.2336
CA -15.0508 -1.27447 31.6518
CA 10.4862 -10.251 76.0572
CA -11.3759 -23.3525 28.1497
CA 9.08117 15.9083 66.2179
CA 24.0891 -14.4424 62.2252
CA -19.5776 -5.3967 73.6773
CA -3.66324 -23.4124 29.794
CA -21.0773 2.81505 33.0875
CA -11.1585 -20.4781 33.7452
CA -18.0953 -4.54637 35.4803
CA 7.54705 17.9023 37.745
CA -3.44757 -12.9495 10.2428
CA -10.0493 -13.1433 25.5708
CA -9.56676 -27.9823 30.0643
CA -10.9899 12.718 71.1086
CA 11.4577 10.1895 25.3045
CA 21.3269 9.09616 86.4389
CA -8.84446 -28.144 54.4405
CA -4.02929 23.4917 57.3604
CA -9.14398 -4.66244 24.1631
CA -3.93058 11.3881 43.22
CA -2.85865 4.08216 24.7417
CA 35.2703 16.8804 50.3442
CA -18.9085 -2.96122 27.9693
CA 11.5452 5.28646 22.8981
CA -8.45347 14.5697 48.1224
CA -24.8654 -12.2064 42.739
CA -12.433 -30.2782 37.6065
CA -26.5392 -2.50919 25.1175
CA 27.1038 -17.9606 34.3403
CA 6.3356 -18.9139 32.5998
CA 42.5652 -14.8342 31.2564
CA -12.6501 -27.4822 30.4429
CA 27.0457 14.3642 48.1232
CA -18.6945 -15.1123 34.9053
CA 1.06745 11.2831 51.7675
CA -6.93303 8.31864 69.7916
CA -11.3738 12.1644 46.2603
CA -2.5999 16.1246 27.5701
CA -21.8298 -4.44274 44.7576
CA 18.8444 -15.0193 33.2843
CA -3.70804 -22.8971 28.0617
CA 34.8828 13.6924 53.2867
CA -9.37149 -2.69004 47.0712
CA 10.734 -26.4474 44.2908
CA 16.4575 -29.7753 55.6161
CA -18.0212 -0.530091 27.8314
CA -33.3479 -6.17307 69.2714
CA 24.8076 -23.8135 40.4754
CA 1.75313 -2.30509 66.3338
CA -18.3684 10.8469 35.9791
CA -26.6384 -3.77935 30.6153
CA 13.5115 -25.208 64.9117
CA -16.6917 5.37006 41.1583
CA 19.6335 3.12188 27.521
CA -10.8637 -6.63918 28.5455
CA -7.51734 -22.712 52.8504
CA 6.32089 -1.63787 36.4107
CA -10.6189 -2.60224 45.461
CA -16.3186 -35.1705 48.7575
CA -5.88194 -0.952849 60.1976
CA 11.1705 27.2333 42.0848
CA -21.1799 28.4307 63.7372
CA 8.98864 -23.6374 44.4142
CA -26.5064 -4.77113 40.2744
CA -25.9954 -11.3725 57.6084
CA -18.6219 -7.92387 57.6278
CA -18.6381 -7.65815 38.6388
CA 9.89379 14.5979 61.67
CA 10.967 4.50014 52.5987
CA 7.37135 24.8063 39.6336
CA -18.5462 -35.2056 49.0494
CA 6.42201 14.7993 61.3363
CA -13.7442 -16.4563 22.1071
CA -10.2978 -23.7695 35.8253
CA -13.6558 -21.836 23.787
CA -11.6461 -4.33717 31.2096
CA 33.1859 8.71285 39.0095
CA 1.98856 -29.4082 60.9125
CA -12.4887 -25.4909 59.0083
CA -20.7203 -5.66816 65.3018
CA 24.9894 14.7478 46.0805
CA -5.62479 -24.0781 36.8016
CA 8.51261 18.2905 47.8033
CA 21.981 -14.8247 37.7856
CA 1.96609 3.03072 25.7863
CA -20.2539 -26.1185 46.755
CA -18.4351 1.6711 56.2325
CA 5.49378 15.3559 59.0098
CA -22.7279 -11.9629 44.7954
CA 20.9447 19.2959 56.9416
CA -19.4926 -28.2899 46.4285
CA 29.5025 -8.10226 62.1145
CA 33.7872 6.77213 43.2936
CA 16.1818 19.0766 41.1919
