489

CA -27.7267 -27.9477 51.0153
CA -1.88808 -33.8749 71.3673
CA 3.33475 -19.2651 65.1328
CA -5.58667 18.9599 53.7994
CA -15.0208 -11.3473 45.9734
CA -24.0343 -16.3876 51.3413
CA -23.3857 -12.6007 43.0927
CA -14.8045 -16.7038 63.2956
CA -9.6409 -18.33 41.1952
CA -22.2515 -14.1677 43.78
CA 4.88393 -22.634 67.6154
CA -33.1509 -19.2514 30.5857
CA -0.183024 -30.8941 68.779
CA 0.468237 2.3073 63.6942
CA 3.8133 13.1556 51.0543
CA 13.701 15.3189 60.1586
CA -9.16971 -37.5896 47.3966
CA -36.7965 -17.8346 57.8778
CA -17.552 -20.9983 45.7389
CA -22.9236 -3.40621 56.0627
CA 9.66269 8.5722 60.4354
CA 1.74382 -14.7341 59.3237
CA -4.90108 -16.3583 32.9923
CA -24.7949 5.13919 55.1119
CA -14.1483 -17.9833 64.7316
CA 1.54728 -27.5155 74.7875
CA -0.869156 -19.6228 54.3569
CA 21.5456 11.2814 60.3512
CA -1.40452 0.583653 63.3145
CA 2.52549 10.4788 49.2002
CA -30.2026 -6.2909 28.9691
CA -16.4803 -17.1617 49.8215
CA -7.28485 -24.0427 64.2921
CA -27.1099 -25.0354 47.7958
CA 7.45854 -3.92418 60.4096
CA 13.7726 -2.32416 45.2939
CA -0.803047 6.41272 46.5938
CA 2.72237 2.56279 57.4557
CA 9.87482 -24.4254 54.9241
CA -23.5436 -16.683 40.4406
CA -13.431 -8.62018 45.8094
CA 5.87034 -11.9644 50.5963
CA -18.2683 2.91806 62.1526
CA -21.1069 1.12486 44.5729
CA -16.3935 -11.8495 35.9943
CA -21.808 -13.1135 55.561
CA -40.7459 -19.7194 38.1323
CA 8.73122 -22.7861 41.8443
CA -7.25181 11.6807 49.3647
CA 10.2346 6.87383 62.6951
CA -0.966136 4.68328 56.3431
CA 9.99113 -19.8782 48.7428
CA -4.09865 -18.2541 48.286
CA 8.73006 11.2454 53.4063
CA -17.7463 5.2714 33.343
CA 6.27824 19.3155 46.6842
CA 12.2691 -27.7628 49.1349
CA -13.9423 -2.10612 43.4734
CA -1.02456 2.26509 54.9829
CA 6.31922 5.01662 54.5731
CA -22.8467 -18.0952 38.6046
CA 5.71324 6.02192 58.4404
CA -32.3617 -5.19686 58.8682
CA -21.8284 -9.74102 59.8575
CA -11.1463 30.1175 30.048
CA -14.9425 -22.4963 27.8597
CA 11.0516 -6.04151 43.2229
CA -18.6382 -14.7329 58.3726
CA -2.99268 -19.0516 46.6189
CA 19.6527 11.8615 61.4339
CA -1.21786 19.9812 33.3373
CA -16.1466 -20.9745 56.4772
CA 4.4822 9.8375 48.4649
CA -12.3738 5.35329 48.0279
CA -6.33223 -21.9005 47.8755
CA 8.43278 -28.149 40.4555
CA -13.4957 -15.6366 18.1938
CA -22.8437 -36.7117 55.9008
CA -5.21211 -16.2637 39.1742
CA 2.96644 5.66404 55.2325
CA -29.6906 -10.7205 56.0786
CA 5.7067 -18.8903 64.9306
CA -1.10228 -27.2536 69.4994
CA -19.9973 -13.1875 38.3298
CA -3.03116 -42.1269 63.0778
CA 7.55937 -21.4385 44.5112
CA -23.5856 -16.9455 35.739
CA 3.67504 -38.2446 61.423
CA -8.88519 -19.7107 50.5899
CA -13.474 -12.1012 44.6547
CA -24.9421 -14.1581 35.2655
CA -20.5345 -16.2512 25.2206
CA 0.235047 -34.9774 49.5076
CA -17.388 -18.6472 49.2541
CA 3.32707 -12.4121 69.2289
CA -16.0107 -8.67105 56.5429
CA -28.1825 -6.89269 27.6628
CA 14.9221 -30.4082 42.3512
CA -0.625093 8.08487 51.7375
CA 0.065499 -31.1314 55.3482
CA 5.42313 9.97137 45.5502
CA -2.91803 -12.4554 16.5348
CA -23.2866 -15.4616 37.1749
CA 6.75098 -16.3295 45.4114
CA -6.89285 -32.0041 63.4917
CA 5.66681 14.546 51.0447
CA -7.26228 -27.3755 43.8535
CA -9.37523 -13.5708 54.9368
CA -4.69334 -1.28666 67.0276
CA 4.08186 -4.42129 61.7258
CA -27.0204 -3.70667 58.0095
CA -6.19425 14.4479 49.4849
CA -8.74674 -5.05591 28.8316
CA -0.839691 11.8466 54.0662
CA 9.83632 -23.4168 50.2634
CA 2.27594 -22.6218 75.9131
CA -7.05983 -16.1815 31.6843
CA -2.78682 -34.1457 47.2085
CA -25.0059 -35.3586 49.5353
CA 3.08852 -23.8012 43.2419
CA -26.3409 -6.48914 56.9264
CA -19.8089 -14.0904 43.7277
CA 1.19628 5.30923 51.8945
CA -0.381815 18.6313 48.9046
CA -11.8553 -18.1387 54.3958
CA -18.9909 -6.75327 37.8402
CA -11.9746 1.95077 43.9586
CA -23.9253 -31.2008 50.9109
CA -28.8317 -15.9566 39.0893
CA 0.913192 -32.188 37.2556
CA -1.95204 -33.3159 53.985
CA 4.09371 -20.1164 63.1103
CA -10.5082 -7.57335 28.3321
CA 0.632045 -15.3016 70.5143
CA -6.5862 -1.11322 59.1443
CA -25.2265 1.42509 55.6318
CA -11.0375 9.3429 62.3741
CA 14.9236 11.6667 60.9704
CA -3.35621 7.23119 50.1003
CA 13.3704 10.8797 64.4786
CA 7.27728 -20.5946 63.524
CA -12.1059 -9.67844 26.2795
CA -17.9982 -7.17374 45.9466
CA -12.1497 -17.2463 60.0314
CA -14.835 -20.8614 43.0766
CA 0.870008 2.51286 55.8212
CA -6.47359 16.7255 44.928
CA -31.4942 -2.41367 61.9791
CA -27.0036 -1.95494 39.5761
CA -17.4863 -16.7676 57.1298
CA -17.7808 -0.584047 57.5344
CA -10.6768 10.7379 48.7346
CA -29.0375 -8.57796 57.2616
CA -8.44947 22.3993 53.0554
CA 3.52031 7.35705 50.5128
CA 7.43236 11.5287 51.0424
CA 3.91313 -17.5026 45.7074
CA -13.4829 -16.8601 43.6915
CA -2.41127 -1.5401 60.9564
CA -25.0454 -6.42715 41.6784
CA 10.3223 -22.7142 47.6227
CA 12.4702 -31.2912 44.8817
CA -0.0485836 -30.8397 52.8769
CA -18.2213 -12.7082 56.2655
CA -11.7793 0.0405057 60.5824
CA -16.2556 3.14362 65.0054
CA -17.1602 19.5299 22.567
CA -35.5643 -17.1497 41.3533
CA -10.5586 -16.3499 56.0547
CA -6.84874 -33.8392 62.1996
CA 2.33892 2.67884 53.9253
CA 6.18424 -21.9489 38.734
CA -10.8038 -34.8251 51.6646
CA -2.85311 -38.8131 66.1897
CA 1.91776 -27.6926 41.7963
CA -27.2477 -47.4571 50.003
CA 6.21157 9.07724 47.0302
CA -6.35818 -35.8459 49.6821
CA -19.4595 -16.6616 52.3362
CA 18.3819 15.0371 61.297
CA -12.4878 9.71581 63.894
CA -11.6101 -21.7653 27.7617
CA -19.9277 -38.8919 52.2053
CA 0.104326 -30.8007 44.6861
CA -3.4875 -18.0147 42.9723
CA -13.2337 -13.104 18.3049
CA -9.42832 -19.8339 56.3416
CA -12.4915 26.8545 27.3008
CA -17.0316 -23.767 45.163
CA -0.484194 0.126067 67.9628
CA -11.3067 -27.4295 64.3902
CA -8.12508 -32.9686 56.4694
CA -35.6994 -17.4899 56.4897
CA 8.17466 -17.9052 53.2832
CA -1.00651 -16.3522 42.6304
CA -16.7955 -16.9869 51.8331
CA -24.0746 -4.56342 60.1979
CA -11.4154 -8.72919 23.6714
CA 2.57093 -16.6984 67.6922
CA -25.2892 -46.9867 50.2952
CA -17.0576 7.09832 61.7678
CA -27.3212 -6.87161 32.4128
CA 3.69932 -23.4773 46.9609
CA -34.4981 -14.7742 54.4294
CA -19.2537 -6.09072 26.4782
CA -11.0677 -16.5657 30.0434
CA -5.14971 -21.5174 49.648
CA -26.4122 -4.23129 38.3447
CA -26.7931 -1.83483 60.0394
CA 1.18224 -21.292 48.4476
CA -10.4192 -18.3686 55.8943
CA 0.781821 -36.4489 48.3378
CA -10.4607 -33.4246 53.8137
CA -21.9454 -15.9899 47.4388
CA -0.225376 -32.8207 53.4043
CA -28.1837 -6.17959 57.5416
CA -5.06429 -20.4712 57.0514
CA -17.413 3.77756 59.7254
CA -16.9751 -4.61426 35.7825
CA -3.89984 -25.9613 71.9893
CA -13.0736 -17.7531 28.6912
CA -30.7355 -2.94433 58.048
CA -23.5788 -32.9582 51.1618
CA -22.235 -10.4958 37.1286
CA -29.4816 -22.0027 44.204
CA -7.93522 -24.3432 52.7162
CA -3.52145 -1.89741 56.2215
CA -16.0073 -16.2833 58.6282
CA -6.63086 -35.1829 45.9845
CA 4.23404 -41.5223 60.3445
CA 1.65915 -30.7334 38.7656
CA -3.86423 24.293 39.2397
CA -11.3802 -8.46878 33.982
CA -14.4472 -0.800997 55.1153
CA -2.3297 4.32268 63.9243
CA 8.56269 -9.12498 46.9297
CA -13.6687 -3.97728 25.6786
CA 14.6288 -26.0257 43.8391
CA -22.5842 -17.7568 51.3412
CA -1.66375 -22.7346 42.8329
CA -13.4398 -7.20664 33.5813
CA -21.5496 -0.608003 23.8861
CA -25.387 -13.231 42.4194
CA -13.0785 -2.44619 24.7069
CA -26.9319 -43.7896 50.4879
CA -6.22415 -34.6251 60.5844
CA 12.7343 -4.47662 47.0107
CA -14.8753 -20.463 65.5961
CA 9.51399 -28.0809 45.0695
CA -4.48302 20.6821 34.1577
CA -14.8755 -22.8321 24.0681
CA -23.4177 -5.84979 41.1194
CA -16.4208 -10.3226 52.4691
CA -22.8029 -42.3828 54.1225
CA -9.46442 18.7327 30.6902
CA -32.1232 -17.1687 44.7921
CA -1.80352 -9.89966 20.7259
CA -17.2814 -4.49989 25.767
CA -20.7584 -17.8064 31.6396
CA -2.72132 5.8254 54.332
CA -5.6669 -11.9363 23.0336
CA -2.98608 -30.4705 62.1869
CA -16.8117 -15.2638 66.7996
CA -13.8065 -5.49262 31.5468
CA -0.361368 -3.04179 16.6839
CA 2.11325 -11.838 36.6952
CA 0.344037 -0.0117217 54.5123
CA -17.0371 -17.682 43.714
CA 9.36302 -24.2046 47.2505
CA 7.14187 6.85635 44.0937
CA 2.9464 -44.2989 63.2774
CA 3.39735 -16.3034 53.658
CA 0.575586 2.85525 67.2347
CA -5.40576 -28.1323 48.1794
CA 10.5415 -8.80997 42.2111
CA 0.587801 -33.1442 40.7968
CA 0.0792554 -28.5898 53.0074
CA -9.34206 20.5986 52.4145
CA -20.5057 -13.7459 60.3949
CA -14.1013 -12.8716 16.4447
CA -18.5057 4.69552 38.1703
CA -19.4586 -14.5293 53.0717
CA 26.2031 16.2396 57.0551
CA -9.12138 -33.1296 50.8771
CA 4.10878 -14.0051 70.4021
CA -23.571 -29.8296 49.0772
CA 6.02507 21.6924 43.3568
CA -12.6259 -33.3511 64.6923
CA 12.1769 -22.536 47.7274
CA 21.4845 16.4491 60.2162
CA -8.68653 3.53967 64.7311
CA 2.32392 -26.1341 71.0001
CA -17.3332 0.82632 23.9852
CA 5.81884 -30.5001 45.3356
CA -2.75997 -26.3925 66.4577
CA 7.02573 -22.3931 46.9424
CA -27.2948 -2.25003 64.6581
CA -15.646 19.2459 17.3142
CA 1.16444 -16.6001 52.4305
CA -24.0245 -40.5048 54.0827
CA 1.92516 -26.4412 48.0674
CA -13.7995 -20.9152 59.7334
CA -20.3486 1.16431 59.9681
CA -22.1094 -17.7667 60.029
CA -22.8767 -19.9601 39.423
CA 5.22681 -26.3368 52.2725
CA -13.604 -14.6228 55.6067
CA -8.00485 7.72597 51.308
CA -17.5324 -14.758 23.8649
CA 8.49683 10.8212 58.8663
CA -16.673 -30.0975 49.114
CA -27.4392 -7.92916 60.9363
CA -33.0012 -11.4676 58.729
CA -20.0145 -35.7078 50.0318
CA 5.99097 3.54414 64.9868
CA -15.3935 0.326958 66.0696
CA -6.49213 -24.8824 66.449
CA 12.5972 13.6109 58.3268
CA 2.10226 -29.4896 49.7357
CA -4.286 -32.3661 72.8399
CA -4.99345 -3.54888 29.927
CA 2.01691 0.180595 56.3103
CA -11.7006 -1.31141 59.0648
CA -21.4724 -3.62091 21.9005
CA -8.26561 -36.4308 65.2429
CA -23.0188 -13.3906 31.1594
CA -17.4253 -0.43116 44.3871
CA -35.2298 -15.3218 39.6977
CA -3.46571 -0.795352 53.2929
CA -5.00628 17.718 39.4433
CA -22.1951 -4.31044 35.6967
CA -19.8853 -33.7223 53.6178
CA -15.4665 -11.9656 60.2719
CA -33.2386 -19.2362 51.7534
CA 22.1454 17.7247 56.5901
CA -36.4024 -25.0166 49.3311
CA 2.07469 4.11396 66.4372
CA -20.7713 -39.0972 55.1647
CA -17.803 -5.07264 33.328
CA -6.63991 15.5303 35.662
CA 3.82443 -18.8066 67.6707
CA 6.1846 16.8192 50.7534
CA -22.1396 -14.0349 37.1888
CA -13.2289 20.6672 23.869
CA -11.6797 -3.1506 30.892
CA 7.13667 -18.3184 70.3019
CA -16.9728 0.578507 42.8495
CA -25.5909 -7.80592 30.4083
CA -28.917 -48.1732 50.8405
CA -14.6189 -5.65092 29.4409
CA -20.3415 13.6503 22.4319
CA -19.0536 -15.7941 41.8131
CA -13.4721 -27.0681 46.2864
CA 22.9585 9.61651 61.1146
CA -16.6246 -37.0621 48.1808
CA -1.49055 -27.9405 72.2246
CA -1.16061 -38.3217 72.1716
CA -0.497374 -27.998 43.7134
CA -16.4963 -11.9168 62.8764
CA 7.7095 -11.6139 44.4962
CA -6.84752 -29.4481 59.9595
CA 4.59116 5.05588 49.0742
CA -29.6686 -12.3171 51.0539
CA -12.219 -4.95846 25.1177
CA -1.47142 -4.06894 14.9105
CA -22.0832 -25.8642 49.4347
CA 5.2455 -32.8813 41.9204
CA 3.84353 6.12274 51.8079
CA -34.1244 -15.4701 56.0605
CA -21.7956 -16.7303 35.776
CA -7.66828 -21.9986 57.7221
CA -11.2546 -17.1804 44.9169
CA 5.55246 -2.35075 63.1536
CA -38.6429 -16.8337 40.3963
CA 2.61139 -18.7992 42.2706
CA -14.4052 16.2517 24.2921
CA -36.3487 -17.5008 38.5982
CA 16.1405 8.55806 60.1917
CA 0.32841 -27.137 77.661
CA -4.70811 -1.06124 60.3543
CA -7.21011 -37.1928 51.0304
CA -13.0572 -32.7129 48.9298
CA -7.87894 -8.78182 31.4201
CA 1.45454 -16.9495 55.6253
CA -18.6763 15.325 20.6268
CA -23.3436 -5.52739 43.0313
CA 12.0789 -22.682 45.108
CA -19.5214 0.235955 28.9136
CA -29.9397 -21.7034 49.8125
CA 0.25256 -1.99376 61.2752
CA -8.14022 -26.4719 64.4407
CA -0.340458 3.68063 61.8561
CA -26.1214 -8.32653 32.881
CA -12.2345 3.02482 62.9182
CA -15.2827 -19.8372 38.0536
CA -18.7103 -5.44046 23.6395
CA -3.7631 -35.8097 66.0799
CA -9.81853 11.6564 64.5686
CA -18.4519 -4.11721 38.9956
CA -2.7953 2.94864 61.0553
CA -25.2378 -42.1216 54.4998
CA 3.69119 -10.5356 54.1585
CA -5.74179 17.1064 49.9455
CA -33.6823 -20.0762 53.3359
CA -13.4845 -14.9937 43.2465
CA -18.9787 10.5623 18.7077
CA -28.0141 -20.6755 45.3382
CA 1.71921 -31.3018 67.0075
CA -33.3833 -13.5938 56.0225
CA -9.89979 -13.9368 38.3038
CA 8.34602 -27.1522 47.1902
CA -22.1711 -13.1048 38.9365
CA 0.698569 -32.6667 46.7035
CA 11.4707 10.6525 57.7114
CA -0.863217 -14.5744 66.6296
CA -27.3278 -15.2453 38.2993
CA -10.475 -36.2957 69.4479
CA -7.16722 19.3328 29.6155
CA -2.1194 -32.5728 43.9593
CA 8.37252 6.2288 49.5846
CA 1.21507 -20.3098 61.8965
CA -21.3805 3.24262 45.7538
CA -15.046 -6.20932 25.0629
CA -14.5227 5.93258 60.9709
CA -9.12108 -29.9156 56.0913
CA -20.3957 -39.3661 60.1957
CA 6.20426 -26.7128 45.998
CA 0.870156 -26.1887 72.1729
CA 3.05764 -28.6566 42.9963
CA -5.31203 -24.2283 67.693
CA -19.5514 -3.24009 61.4679
CA -16.9758 -16.4762 70.8924
CA -2.0133 7.68834 53.7193
CA 6.48924 4.45051 61.1432
CA -13.463 -7.98592 19.0511
CA -33.8507 -4.14493 28.9449
CA -0.870722 -43.9721 61.6454
CA -29.7112 -8.10004 28.2905
CA -32.7966 -11.3533 56.667
CA -0.378617 -3.7545 57.4859
CA 5.34559 3.08281 55.1853
CA -5.72301 -13.0694 34.4642
CA 5.35389 2.22756 58.2938
CA -37.4331 -16.8855 42.3636
CA 8.21058 13.5891 50.3657
CA 0.0570719 -15.0014 38.1951
CA 3.66281 -15.0999 42.7298
CA -17.8927 -9.37704 25.3486
CA -15.2528 3.60617 66.5743
CA -21.8035 -12.5461 57.965
CA -13.0482 -2.2069 39.6487
CA -8.6698 -16.2625 59.3937
CA -20.1729 -12.6288 27.791
CA -9.69251 -20.8385 52.0572
CA -12.1279 26.017 32.2053
CA -19.8225 -17.7311 45.7069
CA -21.607 -21.2608 59.8646
CA 7.05623 5.55442 52.2741
CA 1.09115 -33.0025 44.5261
CA -3.52698 9.66437 54.3762
CA -20.423 -21.2913 46.4637
CA -12.828 6.1411 62.8081
CA -5.46857 -14.5028 19.8351
CA 12.2523 15.5793 63.7064
CA -8.09104 -9.62323 26.3492
CA -8.16753 -6.68994 26.9085
CA -20.4674 -38.5704 48.1288
CA -2.96007 -31.057 45.4957
CA -15.7566 8.51754 67.6574
CA -26.7382 0.440074 46.4944
CA 2.8842 -21.8177 46.181
CA -13.3602 -30.155 67.2326
CA -5.69962 0.293742 47.8398
CA -9.68987 20.6581 28.0993
CA -7.95458 15.796 39.9944
CA -23.8862 -24.6243 48.1074
CA -29.3947 -6.89389 37.8298
CA -1.82268 -11.031 42.252
CA -15.7197 4.35947 28.9244
CA -8.54882 23.1618 30.0543
CA 1.29913 -41.1977 61.6985
CA -7.26591 20.34 42.59
CA 12.208 -25.4308 47.2025
CA -17.5009 3.21038 45.756
CA -16.3921 -13.7766 61.2435
CA 1.10615 -23.8168 52.5685
CA -19.6221 4.8632 36.488
CA -24.8619 -14.554 45.331
CA 6.43731 -14.9676 46.6849
