489

CA -0.451223 -16.8576 36.5869
CA 9.72505 12.8975 48.0181
CA -10.4009 -15.5174 28.6755
CA -1.75427 -28.4242 66.2158
CA -15.0208 -11.3473 45.9734
CA -20.5013 1.57795 56.7175
CA -12.0544 20.643 26.8873
CA -20.705 -29.01 53.8431
CA 3.05259 14.1825 54.5647
CA -11.9061 20.6488 48.7435
CA -28.6488 -26.0675 43.2943
CA -20.5875 -4.32987 39.7647
CA 4.99117 -21.0266 44.0393
CA -27.6556 2.53521 63.0825
CA -27.7789 -8.37121 58.5173
CA -11.7346 -31.8912 70.9982
CA 18.2436 -22.7038 52.8386
CA -36.7965 -17.8346 57.8778
CA -4.64433 -6.54517 19.1164
CA -16.8268 0.481253 59.4919
CA -9.71065 11.9241 38.9427
CA -13.8384 22.0735 16.7746
CA 12.3642 8.7422 44.0389
CA 4.10563 12.918 48.2761
CA -7.82071 -2.02236 62.0744
CA 18.4285 -21.6019 46.9035
CA -0.869156 -19.6228 54.3569
CA -7.72901 -35.0035 55.2884
CA -1.40452 0.583653 63.3145
CA 14.6664 -34.6916 53.3984
CA 16.2796 -26.6414 48.8014
CA -12.8251 -5.38074 36.2397
CA -16.3036 -1.27465 63.6893
CA -17.5838 -3.90894 60.9098
CA -29.5018 -8.48386 51.7009
CA -12.1751 12.2809 62.7786
CA -9.50772 -27.326 66.7928
CA 7.53434 18.6872 45.4297
CA -20.3256 -23.7234 35.5073
CA -23.5436 -16.683 40.4406
CA -14.6073 23.0972 31.0754
CA -7.09256 -34.2866 58.1184
CA -1.27409 1.7587 58.9602
CA -25.2727 -2.14277 58.5748
CA -16.3935 -11.8495 35.9943
CA -18.2776 5.27331 30.1479
CA 0.281677 -19.9425 59.5311
CA -8.20162 -5.77033 34.4935
CA -9.07211 -10.8667 21.5808
CA -8.17239 8.91112 63.2191
CA -9.20018 -17.2297 60.0255
CA -18.961 1.37631 42.9924
CA -14.0211 -11.9028 44.3056
CA 8.73006 11.2454 53.4063
CA -33.4153 -19.8283 55.7446
CA -8.07845 -35.8084 53.6639
CA -20.9622 -16.3815 21.0524
CA -13.9423 -2.10612 43.4734
CA -1.39807 -5.77325 59.6013
CA -20.6456 -29.0503 59.3435
CA -26.6578 -34.4074 49.3123
CA -19.1038 17.5658 18.464
CA -12.5778 -15.2204 27.2431
CA -21.8284 -9.74102 59.8575
CA -36.3815 -14.2512 55.8247
CA 11.6758 -6.40654 41.5555
CA 11.0516 -6.04151 43.2229
CA -4.16828 -17.1906 30.2137
CA -35.1363 -15.4077 41.8271
CA 19.6527 11.8615 61.4339
CA -16.1281 -12.5473 50.8093
CA -4.41124 -20.8586 47.8583
CA -11.2788 -27.8342 39.5508
CA -18.66 1.1385 60.858
CA -6.33223 -21.9005 47.8755
CA -20.2604 -0.460891 21.8337
CA 4.9617 -15.327 57.0039
CA -1.73842 -15.4897 62.2284
CA 7.86808 -22.9257 52.9415
CA -25.6005 -13.4856 52.6289
CA -12.1834 -11.2247 23.7448
CA -4.69054 -0.00272227 41.6013
CA -21.4696 -8.55159 34.3195
CA 0.0609351 -14.036 58.052
CA -6.85925 -17.6765 46.599
CA 7.55937 -21.4385 44.5112
CA -13.6773 4.00419 64.5805
CA 3.67504 -38.2446 61.423
CA 5.21809 -25.9961 50.2182
CA -38.4588 -20.9189 57.8124
CA -6.49644 3.4515 46.6049
CA -6.11511 -32.4049 66.2068
CA -20.1188 -10.8498 38.2973
CA -17.388 -18.6472 49.2541
CA -11.1726 -25.405 37.6801
CA -19.3079 3.6861 61.6154
CA -43.1257 -16.0575 41.5204
CA -22.0472 -3.77549 43.5665
CA 10.8343 -24.9448 49.4177
CA -18.9714 -11.6705 43.6235
CA -7.77112 18.7509 49.0614
CA -2.91803 -12.4554 16.5348
CA -23.1205 -7.69988 30.0353
CA -7.63954 -35.3095 71.8475
CA -3.96724 7.344 44.8171
CA -7.24515 -14.5545 46.4637
CA -1.83408 -8.01937 18.84
CA 3.62489 5.24585 53.5755
CA -4.69334 -1.28666 67.0276
CA 4.08186 -4.42129 61.7258
CA -19.0353 6.05796 59.5439
CA -6.19425 14.4479 49.4849
CA 3.09126 -20.2791 43.4528
CA 4.38605 -15.7121 47.6839
CA -29.1093 -46.5515 48.8821
CA -34.2931 -22.6732 46.071
CA -7.05983 -16.1815 31.6843
CA -6.83838 -32.9675 55.1512
CA -23.6481 -12.9363 22.9596
CA -17.9143 -16.726 47.9072
CA 4.75541 -24.1065 45.0164
CA 2.9101 -28.5906 67.562
CA 1.19628 5.30923 51.8945
CA -16.9657 -11.5959 65.8334
CA -0.0237695 -24.2136 72.0214
CA 10.4906 22.0953 45.2612
CA 5.05805 -9.45541 55.0984
CA -25.202 -4.08184 61.7076
CA -14.5414 -2.39815 50.2123
CA -13.0922 -20.0278 45.6597
CA 3.12704 -18.1518 42.543
CA -22.7112 -5.27234 36.0629
CA -2.32326 -33.6188 47.7964
CA 2.49546 -12.5902 43.4809
CA 3.58002 -26.1203 46.5259
CA -7.94703 -40.8697 65.724
CA -2.41099 -2.11622 16.3317
CA 14.9236 11.6667 60.9704
CA 0.807745 -36.5806 54.2456
CA -11.8018 -14.1292 45.4114
CA -6.99013 -24.6525 61.2376
CA -12.1059 -9.67844 26.2795
CA -12.8291 17.0538 44.0164
CA -28.3724 -39.9923 53.6926
CA -18.1348 -10.4346 20.0858
CA -10.5408 10.268 64.2531
CA 3.36915 -12.3446 45.5308
CA -4.53601 -33.6517 53.2073
CA -2.64744 -20.5541 51.728
CA -11.622 19.6628 30.7989
CA 2.00974 -16.8975 52.5171
CA -4.35355 -18.9811 21.058
CA -4.35968 -29.9843 60.6696
CA 1.06264 16.9259 45.5413
CA -18.2316 -25.0524 36.1326
CA 7.43236 11.5287 51.0424
CA -14.6109 -8.61924 42.2542
CA -11.3403 -31.8396 67.3207
CA -12.236 -23.3692 53.5105
CA 14.3633 -26.8146 55.9645
CA 3.50665 -18.3551 53.6582
CA 1.23348 -0.680482 68.2523
CA -10.7986 23.8021 56.0643
CA 15.4457 -23.4628 53.4525
CA 4.90811 -28.1325 41.2674
CA -2.73289 -28.8883 48.3965
CA 0.458512 -0.075951 62.3866
CA -35.5643 -17.1497 41.3533
CA -2.66416 -16.6954 36.0679
CA -18.2706 -20.7893 51.0721
CA -20.6906 -7.86504 40.5561
CA -10.5239 5.64757 61.8999
CA -28.2014 -7.5071 50.2096
CA 0.367017 11.9662 49.8088
CA -1.74905 -25.5631 46.4015
CA -29.6674 -45.9875 54.0292
CA -14.7723 -5.21823 37.979
CA -6.35818 -35.8459 49.6821
CA 12.7306 -3.17853 47.2105
CA -25.9707 -4.40198 59.7184
CA -22.0077 -34.9563 49.2589
CA -11.6101 -21.7653 27.7617
CA 3.15477 -27.7982 48.9101
CA 2.51646 -14.2223 44.7725
CA -20.9486 -25.5677 54.3124
CA -9.45727 22.0661 58.063
CA -13.9423 -5.89527 33.0253
CA 11.1925 9.61325 40.9893
CA -21.6923 -16.7618 43.2675
CA -18.7957 1.94988 22.6784
CA -11.3067 -27.4295 64.3902
CA -8.12508 -32.9686 56.4694
CA -25.8944 -11.045 34.6462
CA -7.56637 -1.12888 31.2667
CA -19.3665 -14.9891 57.0555
CA -10.9148 18.5677 21.7983
CA -1.7537 -27.9421 64.1044
CA -8.25594 2.63681 40.1014
CA 11.1787 10.7737 45.5693
CA -24.7868 -0.606025 60.0551
CA -17.0576 7.09832 61.7678
CA 7.98864 12.1685 43.3603
CA -21.0296 -17.7005 54.2976
CA -11.1843 -14.6529 57.4692
CA -29.9897 -17.2184 51.827
CA 14.8377 -33.4166 51.5192
CA -30.0572 -44.2247 49.0928
CA -2.69218 -29.9266 68.7016
CA -27.9793 -44.776 52.2772
CA 3.03296 -12.0174 58.8115
CA -4.27272 -17.6473 47.4549
CA -31.5708 -7.69253 31.9894
CA 0.977747 2.75011 46.3718
CA -15.2021 -9.49156 40.3064
CA -15.5771 -14.3623 69.8427
CA -9.48434 -11.593 29.568
CA -24.3929 -23.8757 37.9998
CA -40.667 -8.39775 44.9445
CA -3.10155 -18.0815 44.0523
CA -23.7423 -7.31257 58.8222
CA 6.9707 -25.5276 54.8068
CA -28.0529 -8.14468 37.0223
CA -10.6629 11.086 60.0996
CA -22.235 -10.4958 37.1286
CA -17.5319 -24.7816 46.6392
CA -13.459 15.8476 25.8847
CA 11.1267 -27.6879 51.4124
CA 8.88791 -12.2537 45.4982
CA -0.321929 -13.2197 47.5567
CA 4.23404 -41.5223 60.3445
CA -0.00527283 7.22587 44.2979
CA -8.04588 19.3544 25.8813
CA -7.31193 -4.6961 31.9263
CA -26.0737 -34.3076 51.3526
CA 0.598209 4.69185 55.8563
CA -2.40166 -40.699 65.0989
CA -21.6722 -16.698 61.7183
CA -2.44267 19.6811 47.2757
CA -1.29139 -13.7172 15.3486
CA -10.7715 -16.5956 57.8455
CA 7.69613 -3.59649 45.8276
CA -5.30957 17.267 29.7676
CA -11.0881 -24.4899 65.4918
CA -27.0701 -42.8485 53.3014
CA -26.9319 -43.7896 50.4879
CA 7.92655 16.7558 50.0972
CA -6.45732 -13.4029 31.7235
CA -33.5016 -51.0471 51.5735
CA -15.0898 10.5727 17.8925
CA -0.977125 -14.4718 41.4104
CA 13.8598 -11.3147 45.4699
CA -34.3175 -13.3027 53.3235
CA -31.3623 -44.8697 52.5361
CA -22.8029 -42.3828 54.1225
CA 3.73262 16.4969 52.8434
CA -32.1232 -17.1687 44.7921
CA 10.2994 -17.44 50.1396
CA -17.2814 -4.49989 25.767
CA -31.9962 -11.3468 49.8133
CA 1.10903 14.1892 53.0843
CA 6.61931 12.5194 48.9626
CA -27.2951 0.290683 62.4192
CA -15.279 17.3583 29.2559
CA -13.3111 14.4271 65.095
CA -8.5434 -1.30948 39.8963
CA 2.34587 8.32903 47.9369
CA -35.9398 -15.3222 50.8173
CA 6.94207 7.14436 54.7703
CA -30.4072 -16.4897 53.8891
CA -0.0248137 13.8323 57.1498
CA -11.6049 22.1101 19.9337
CA 3.39735 -16.3034 53.658
CA 0.575586 2.85525 67.2347
CA -5.40576 -28.1323 48.1794
CA -22.5732 -10.7483 27.3627
CA 3.91197 -23.5376 64.555
CA -8.58587 -10.0916 45.5647
CA -9.34206 20.5986 52.4145
CA -9.3379 -27.515 35.3884
CA 15.9281 8.70398 56.6554
CA -26.5671 -2.16545 62.1366
CA -23.4163 -36.5837 52.7959
CA 7.95598 -28.0761 50.7725
CA -21.9876 -11.5922 40.0279
CA -24.5842 -18.1359 57.5616
CA -23.9374 -9.46987 36.7685
CA -0.429358 -16.6091 60.0142
CA -15.6019 2.4022 23.9366
CA -19.2791 -20.1123 48.7901
CA 21.4845 16.4491 60.2162
CA -18.2354 -24.7511 44.2552
CA -10.5015 6.2315 66.0001
CA -17.3332 0.82632 23.9852
CA -28.25 -10.4132 50.144
CA -25.1612 4.93739 39.0581
CA -10.9868 16.0422 65.1028
CA -3.1507 -26.4921 49.248
CA -39.1852 -13.5749 41.405
CA -16.9576 -23.1261 47.7669
CA -24.0245 -40.5048 54.0827
CA -12.8614 -10.6814 42.429
CA 7.43788 -35.659 59.6452
CA -0.926283 -16.1424 53.4139
CA -3.4942 -30.248 51.906
CA -15.1089 -11.9796 39.3594
CA 6.31516 -22.5534 43.1934
CA -14.0465 -9.08519 26.2504
CA -8.00485 7.72597 51.308
CA -17.5324 -14.758 23.8649
CA -3.22247 -2.11406 60.1584
CA -22.7766 -22.2043 38.8152
CA -14.3944 -0.547289 45.3278
CA -7.84749 -25.6314 49.8035
CA -28.6036 -10.0256 58.7955
CA -11.9617 16.5941 39.8977
CA -33.043 -14.6033 51.7143
CA -12.2883 8.00649 63.098
CA 13.7904 -4.84526 42.8084
CA 8.733 -14.9239 47.2266
CA -34.0673 -20.9133 49.9809
CA -21.594 1.95932 61.6643
CA -9.28258 -13.9317 27.2932
CA 7.17555 -25.2272 47.7923
CA -9.84987 20.9369 44.8192
CA -8.26561 -36.4308 65.2429
CA -3.48678 4.51496 65.9793
CA -27.4164 -5.26209 55.4282
CA -35.2298 -15.3218 39.6977
CA -18.0339 2.07549 57.7942
CA -5.00628 17.718 39.4433
CA -29.4024 -8.47066 35.8121
CA 3.87734 10.673 43.6845
CA -10.2557 -34.4598 60.3687
CA -33.2386 -19.2362 51.7534
CA 22.1454 17.7247 56.5901
CA 6.62777 -13.1244 58.0524
CA 1.42697 -0.683804 65.8596
CA -1.80375 -31.3543 72.4768
CA 18.2029 -25.0783 52.1706
CA -20.8599 -45.4477 52.3357
CA 3.82443 -18.8066 67.6707
CA -7.87036 20.5483 33.1223
CA -26.7257 -23.9321 39.4568
CA -31.3438 -11.4016 53.3709
CA -11.6797 -3.1506 30.892
CA -6.70111 20.4146 38.6553
CA -26.3725 -2.02023 60.3044
CA -3.66779 -29.595 46.5195
CA -28.917 -48.1732 50.8405
CA -4.19316 -33.2282 66.5922
CA -22.0531 -4.93993 37.8766
CA 11.4276 -23.4668 53.2327
CA -14.8156 -7.68041 20.9014
CA -17.431 -25.3077 52.7265
CA -21.5173 0.884614 46.9199
CA 13.1504 18.6347 45.4251
CA -3.59828 -32.1024 59.1619
CA -2.74242 -31.4431 50.6659
CA -1.17723 -18.303 44.5611
CA 0.497045 -2.75393 65.1169
CA -11.3882 -35.311 55.9935
CA -10.7156 12.3876 64.4384
CA -3.49208 15.8024 46.4428
CA 11.7828 -23.6044 55.9922
CA -1.47142 -4.06894 14.9105
CA -1.59081 -12.0679 41.8349
CA 3.02369 -8.53922 57.2219
CA -39.2092 -13.8388 50.3975
CA -9.68769 9.45823 66.7164
CA -17.4578 -31.251 50.2498
CA -7.66828 -21.9986 57.7221
CA -29.6098 -9.55469 37.285
CA 0.110663 -25.7155 79.6714
CA -9.92207 -24.7163 67.0616
CA 8.13256 11.1001 58.1811
CA -14.4052 16.2517 24.2921
CA -25.1966 -5.29724 39.6063
CA -7.70179 -24.0093 62.8588
CA -8.86789 -3.51179 39.2314
CA -14.3548 21.7707 28.4441
CA -4.15115 2.29603 65.6086
CA 9.79028 15.2184 55.7142
CA -9.99139 -12.198 45.116
CA 1.45454 -16.9495 55.6253
CA -8.84521 -9.51707 43.514
CA 20.0494 16.3447 54.0273
CA -26.8099 1.17625 59.5705
CA 3.87531 -30.5495 49.2572
CA -29.9397 -21.7034 49.8125
CA 0.808663 9.46712 49.1403
CA -13.5751 -6.37062 34.7545
CA -10.2966 21.4854 25.9506
CA 1.63567 14.1511 48.5615
CA -9.43147 -18.0633 28.1464
CA -14.9525 17.9697 19.0279
CA 13.1257 -12.0276 40.8187
CA -12.4109 -28.0626 68.8705
CA -20.4025 -4.56035 35.0467
CA -16.3321 -5.77402 43.9539
CA -13.8392 -11.161 29.28
CA -19.2887 -21.9404 53.7725
CA -2.36703 4.6647 56.7659
CA -5.74179 17.1064 49.9455
CA -7.15507 -8.49856 22.9286
CA 14.6299 -29.5372 52.5539
CA -18.9787 10.5623 18.7077
CA -29.5892 -6.91624 55.26
CA -19.9731 -1.55074 41.1402
CA -9.67328 -8.57164 26.6304
CA 5.12673 -36.2431 63.4911
CA 0.00980235 -31.0034 74.5241
CA -17.809 -31.5646 48.2478
CA 0.698569 -32.6667 46.7035
CA 11.4707 10.6525 57.7114
CA -22.8015 -18.3589 53.5468
CA -12.6994 -9.32807 43.8803
CA -8.06171 -26.4989 61.7541
CA 8.67951 -21.0529 47.1983
CA 2.55702 -22.9124 50.1086
CA -42.4565 -6.37176 43.6789
CA -16.5267 13.4813 18.3047
CA -20.8244 -23.2352 39.1667
CA -9.21188 -25.9063 41.4126
CA -27.1504 -14.5381 36.629
CA -33.7187 -11.8625 47.6726
CA 12.2473 11.3106 60.3265
CA 6.20426 -26.7128 45.998
CA -2.34205 -39.8004 66.7928
CA -20.4857 4.63864 43.2851
CA -5.1232 -3.41254 18.9493
CA -13.7635 15.7644 66.2828
CA -26.6588 -37.0329 54.2676
CA -0.490453 -4.38809 62.4263
CA 5.79499 -24.2413 65.9778
CA -13.463 -7.98592 19.0511
CA -9.61148 -28.3213 38.607
CA -0.870722 -43.9721 61.6454
CA -28.6982 -20.9446 45.4433
CA -1.75406 -2.32891 54.0409
CA -0.378617 -3.7545 57.4859
CA 5.34559 3.08281 55.1853
CA -16.4945 -2.81847 46.6738
CA -18.7178 -13.406 45.0869
CA -37.4331 -16.8855 42.3636
CA -15.964 -6.94205 17.7224
CA -10.9378 -38.4945 48.2917
CA -38.6253 -11.1631 43.7281
CA 11.6018 -7.48547 48.6771
CA 6.2407 -23.4715 50.2748
CA 9.81944 -27.9012 42.7333
CA -26.0692 -8.68216 57.5189
CA -20.1768 -31.2443 51.2948
CA 2.59805 -10.0026 58.4186
CA -7.24886 -2.02573 42.842
CA -6.87749 -1.97025 60.2872
CA 5.42922 -39.2343 62.6189
CA 12.4221 9.2483 59.6502
CA -16.6699 -11.0423 42.3595
CA -19.5111 -21.1885 36.8401
CA -9.70875 -12.8463 31.5031
CA 1.93763 -24.5687 66.7148
CA -6.23981 -38.4434 63.5941
CA -5.46857 -14.5028 19.8351
CA -17.1327 -11.1063 55.1812
CA -17.2677 3.6157 45.6969
CA -24.2139 -14.2536 54.3186
CA -28.3047 -16.6886 60.5103
CA -6.8185 -17.1758 48.9691
CA -17.8612 4.18538 34.8717
CA -13.3622 4.30404 62.3737
CA 2.8842 -21.8177 46.181
CA -13.3602 -30.155 67.2326
CA -29.6276 -37.0315 49.1047
CA -3.219 -6.11833 13.9235
CA -7.95458 15.796 39.9944
CA -9.5835 -4.19438 42.9272
CA -32.5902 -17.6192 57.5213
CA 3.3315 -28.4 40.1867
CA -15.7197 4.35947 28.9244
CA -12.6798 -15.4346 40.2776
CA -1.3386 -27.2235 48.7446
CA -7.26591 20.34 42.59
CA 7.52525 -37.5198 59.7542
CA -14.9297 -26.6402 44.2016
CA -12.0451 -3.51348 40.4171
CA 1.10615 -23.8168 52.5685
CA -12.972 -27.7445 40.6882
CA 18.1411 11.5144 59.9606
CA 8.0616 15.6844 52.942
