489

CA -9.935 -14.6619 30.1245
CA -13.702 4.05351 67.381
CA -3.80801 6.90402 48.4421
CA 14.5015 18.6062 44.2104
CA 4.41065 -26.9922 55.3665
CA -12.0975 15.682 30.3363
CA -31.2212 -0.418715 63.5116
CA -20.705 -29.01 53.8431
CA -19.1992 1.16564 43.394
CA -11.9061 20.6488 48.7435
CA 3.46336 -18.7416 59.8433
CA 13.1605 -5.35287 52.4089
CA 4.29279 -1.31618 64.1854
CA -8.3545 -6.98278 16.9248
CA -10.8814 -25.8589 57.6875
CA 9.85657 -21.8727 49.4168
CA 18.2436 -22.7038 52.8386
CA -20.8662 8.9248 60.291
CA -3.05201 -33.2933 52.5386
CA -16.8268 0.481253 59.4919
CA -32.9411 -25.0055 51.4749
CA -8.21081 -35.4913 47.6132
CA 15.3038 6.83951 43.1422
CA -17.6102 0.0463913 45.7269
CA -17.2689 -21.3494 54.5984
CA 18.4285 -21.6019 46.9035
CA -20.6221 -11.4473 37.948
CA -17.6076 4.05879 52.3471
CA -4.9699 -15.3727 64.8774
CA -18.9699 5.15098 63.0992
CA 9.62254 -5.7384 50.8836
CA 12.0715 12.2556 40.9884
CA -16.3036 -1.27465 63.6893
CA -24.4404 -7.22199 59.1139
CA 1.89903 -25.1019 68.3193
CA -5.3092 5.90835 65.1872
CA 9.33656 -12.2576 50.0419
CA -12.5344 -5.38066 37.0873
CA 0.702144 -6.72171 56.2428
CA -15.5248 -3.84543 23.8382
CA 6.42626 1.93459 50.6932
CA 18.5947 -20.1816 53.4145
CA -12.566 -9.63701 43.3371
CA 14.4241 10.7105 59.3494
CA -9.75588 16.5995 19.1379
CA -17.1199 -14.2015 45.587
CA 17.1678 -26.9592 55.1129
CA -8.20162 -5.77033 34.4935
CA 7.54241 9.85845 45.0028
CA -1.69101 -34.9984 55.5632
CA -30.8013 1.38598 54.9451
CA -6.80444 -35.3383 52.2948
CA -12.9316 -24.1146 55.1688
CA 8.73006 11.2454 53.4063
CA 12.8626 -3.54199 52.4787
CA -7.76323 -7.44879 15.2529
CA -17.9244 -7.40521 36.6338
CA -19.4423 -1.52486 35.5072
CA 3.75654 -25.6597 51.6464
CA -36.1313 -14.9914 45.1485
CA -26.6578 -34.4074 49.3123
CA 12.3189 11.1468 39.0856
CA -12.5778 -15.2204 27.2431
CA 11.622 17.7718 46.6307
CA 9.65107 -25.8472 53.8624
CA 2.61084 -14.0688 60.3098
CA -20.6455 -4.47645 62.4511
CA -6.74549 6.73687 67.219
CA -35.1363 -15.4077 41.8271
CA 12.9042 -8.34448 43.4739
CA -5.54764 -6.73924 63.8869
CA 2.46721 -15.9296 59.2869
CA -24.1054 -30.5064 37.3117
CA -10.5727 21.8278 53.5975
CA -18.7555 -26.1621 54.1717
CA -6.17193 2.73631 41.4708
CA -27.8677 -7.70953 56.7709
CA -1.73842 -15.4897 62.2284
CA -12.4392 2.9447 61.2523
CA -8.4913 -8.41325 40.8988
CA -26.5557 -38.3587 51.3711
CA 17.4357 11.4278 58.1613
CA -11.9426 -3.81716 48.662
CA -25.033 -16.2681 53.0778
CA -19.2071 -7.38959 37.9004
CA -31.7805 -48.0159 48.4963
CA -0.337567 -11.512 68.1306
CA -32.9236 -8.32588 53.8902
CA -6.6627 22.7942 35.2711
CA -36.1843 -22.2052 49.8929
CA -16.8466 7.45027 69.574
CA -2.21671 -10.7859 62.7561
CA -17.2759 3.7775 41.9353
CA -13.4005 -7.72643 30.1619
CA 0.786551 -9.81567 63.7695
CA -4.81467 -25.6372 44.8747
CA -24.4624 -12.3631 32.2161
CA -6.36903 0.700184 44.4081
CA -8.51301 -20.1009 56.4509
CA -22.1846 -22.5963 32.7648
CA 14.5422 -7.06301 41.3345
CA -2.91803 -12.4554 16.5348
CA -10.6747 -34.3235 44.9172
CA -10.8086 0.934967 41.826
CA -4.3046 -3.74644 60.9774
CA 7.71336 -7.65749 46.183
CA 2.10265 -41.0772 63.8506
CA 3.62489 5.24585 53.5755
CA 12.3587 7.61811 41.0838
CA -0.55433 -25.5043 55.7794
CA -19.0353 6.05796 59.5439
CA -28.1933 -14.911 51.8195
CA -32.1394 -18.4343 54.7663
CA 10.6887 11.1202 49.4766
CA -32.226 2.13316 57.018
CA -0.160464 13.0077 22.2453
CA 7.5488 6.53766 46.3522
CA -4.91435 14.8196 38.4247
CA -2.43077 -36.431 46.2594
CA -10.8893 17.122 17.3035
CA -32.793 -46.8671 49.9831
CA 15.0013 -25.9828 50.8753
CA -9.57546 20.7261 38.0232
CA -16.9657 -11.5959 65.8334
CA 10.3631 10.2566 36.911
CA -11.3581 12.8081 29.5958
CA -4.7798 -37.6644 49.2386
CA -18.5981 -1.2534 46.8267
CA -12.8811 -8.66488 47.9803
CA 12.029 6.03903 39.0358
CA 4.10569 8.82254 56.7666
CA -7.58112 -7.17045 21.6946
CA -3.86354 -27.0286 64.5882
CA 10.8873 -22.262 57.0506
CA -30.7061 -16.6561 50.1927
CA 16.7094 -8.10225 41.5117
CA 5.80685 10.2497 56.0987
CA -6.40133 -17.0066 33.5986
CA -5.89207 -9.49828 36.1028
CA -9.38961 -4.59368 23.4163
CA -6.99013 -24.6525 61.2376
CA -8.69583 -11.4504 33.4078
CA -12.8291 17.0538 44.0164
CA -28.3724 -39.9923 53.6926
CA -10.5669 -14.3355 54.9439
CA 12.9973 -15.6729 48.6386
CA 14.5878 14.4765 55.1799
CA -4.59917 -4.97855 63.1125
CA -31.9467 -22.2334 48.3088
CA 1.9135 -20.0085 51.7795
CA 2.00974 -16.8975 52.5171
CA -10.2606 -28.7762 70.8637
CA -4.35968 -29.9843 60.6696
CA -22.9715 -14.8391 56.0413
CA -13.2345 -9.13922 45.9707
CA -34.0434 -23.5216 51.0951
CA -14.6109 -8.61924 42.2542
CA -11.3403 -31.8396 67.3207
CA -12.236 -23.3692 53.5105
CA -9.71585 -2.11998 26.7434
CA -1.76335 -7.83596 65.9233
CA -14.6994 16.9923 63.0011
CA -10.7986 23.8021 56.0643
CA 15.4457 -23.4628 53.4525
CA -14.5251 -3.38913 42.3918
CA -9.5914 -26.4721 39.0247
CA -5.11939 13.5325 22.1727
CA -9.7178 -1.26617 42.1027
CA -12.5372 -19.9929 53.1216
CA -30.8593 -9.10271 35.3887
CA -6.65062 -20.5093 31.7049
CA -1.78992 -6.50518 18.6179
CA -28.2014 -7.5071 50.2096
CA 0.367017 11.9662 49.8088
CA -5.55078 7.87992 64.2363
CA -12.41 -32.6985 35.3317
CA -13.8537 -24.5201 32.8951
CA -16.6901 0.274335 47.4197
CA -32.0321 -21.4791 50.2719
CA -25.9707 -4.40198 59.7184
CA -22.0077 -34.9563 49.2589
CA -26.022 2.44694 56.6953
CA -18.8715 -29.9972 47.2352
CA 10.9079 -3.92074 51.5862
CA -20.9486 -25.5677 54.3124
CA -8.28385 -10.0069 56.8869
CA -13.8863 -29.1024 66.0746
CA -23.5385 -14.0723 42.9538
CA 9.80924 7.11699 47.7041
CA 2.80805 -2.62126 62.6141
CA -11.3067 -27.4295 64.3902
CA -16.7503 -9.68397 29.0656
CA -25.8944 -11.045 34.6462
CA -31.0378 -7.21786 30.6281
CA -7.39918 -31.3785 65.3979
CA 10.0415 -7.28563 48.3711
CA 6.25381 -21.9981 48.8837
CA 8.32042 -22.1293 66.9125
CA -21.4253 -25.2646 34.8402
CA -9.42308 -3.77261 21.561
CA -8.0352 -33.7638 61.9256
CA 1.35076 10.1955 49.9589
CA -2.65118 -32.0657 57.3212
CA -13.5623 -28.4739 37.9335
CA 9.40128 -2.39431 52.5106
CA -8.00107 -39.6287 73.2237
CA 9.87701 9.22317 40.9444
CA -2.69218 -29.9266 68.7016
CA -10.9197 -2.73073 22.0843
CA -5.73489 -38.7324 73.805
CA -32.199 -5.59333 52.5212
CA -23.3641 -35.8811 52.8158
CA 0.977747 2.75011 46.3718
CA -15.2021 -9.49156 40.3064
CA -15.5771 -14.3623 69.8427
CA -18.531 -11.8177 48.3612
CA -24.3929 -23.8757 37.9998
CA -8.95913 16.37 45.1277
CA -20.264 -33.4326 34.5094
CA -29.6419 -13.8764 51.1335
CA -7.98495 13.0003 48.5104
CA 1.38241 -28.0116 53.417
CA -17.8496 -21.9928 52.4725
CA -4.85732 -19.2278 53.3616
CA -14.1059 -14.2347 46.3525
CA -3.06624 -23.0639 55.8293
CA -4.01291 14.8765 24.4541
CA 8.88791 -12.2537 45.4982
CA -15.0839 -0.669384 45.8658
CA -10.0989 15.1731 34.9706
CA -0.00527283 7.22587 44.2979
CA -15.8973 0.716235 42.183
CA -36.7384 -8.65469 27.7145
CA -28.3275 -38.444 58.918
CA 0.809609 -28.6205 70.3852
CA -21.8019 -3.10138 37.9924
CA 10.5293 14.6321 49.3258
CA -28.1795 -42.5214 51.4097
CA -20.4658 2.24537 64.6212
CA -32.9002 -7.31766 29.69
CA 1.74515 -14.8678 20.1707
CA -21.7052 -8.43153 64.1262
CA -21.1254 -31.976 33.8351
CA -6.85392 6.92396 50.667
CA -1.85286 -8.62572 22.0727
CA 1.68116 8.31443 49.7033
CA -29.2359 -10.1829 34.176
CA -5.07009 -32.4751 55.3628
CA -2.30195 -15.8442 65.4832
CA -24.2618 -13.1895 66.9234
CA -30.5969 -11.4086 55.9492
CA -11.7306 7.57065 51.8483
CA -26.5388 -15.8823 51.7108
CA -29.4491 -17.5467 56.659
CA -15.5997 -22.206 50.8937
CA -32.1232 -17.1687 44.7921
CA -7.61777 -16.9513 65.3694
CA -6.64094 -13.0758 36.9044
CA 2.9894 -2.99558 13.247
CA -12.3704 17.9315 30.5401
CA -8.65231 16.9772 46.9225
CA -26.3598 -12.8644 33.321
CA 18.4505 -27.2612 48.6112
CA -17.9388 -26.8419 36.7135
CA -36.4851 -5.13441 49.8915
CA -6.61194 -10.194 55.0965
CA -7.66649 -15.7979 51.9346
CA -0.664703 0.483914 56.8845
CA -2.8674 11.0559 50.2992
CA -10.8603 -19.9319 54.7703
CA -12.6214 1.6778 39.6792
CA -3.25638 -17.2948 60.7052
CA -0.111062 -21.569 54.2575
CA -2.80365 -6.38126 69.0075
CA -13.6317 -11.0188 55.9844
CA -3.77552 -6.00868 17.1206
CA 5.62367 1.58519 59.3796
CA -9.34206 20.5986 52.4145
CA -19.1304 -2.89045 36.8816
CA -16.612 -12.2856 40.8038
CA -26.5671 -2.16545 62.1366
CA 2.42681 4.41196 42.2322
CA 17.1738 -22.4606 50.1212
CA -16.4614 -3.25952 44.0205
CA -31.4652 -20.3583 52.0763
CA 1.3392 -33.7175 42.1449
CA 12.3121 -1.47464 53.4032
CA 4.50388 -2.36742 60.727
CA -1.25037 -8.87601 14.3092
CA -10.2629 7.85593 60.7476
CA -18.2354 -24.7511 44.2552
CA -10.5015 6.2315 66.0001
CA -17.3332 0.82632 23.9852
CA -28.25 -10.4132 50.144
CA -25.1612 4.93739 39.0581
CA -7.24279 -5.72533 30.9629
CA -7.24058 -4.61107 19.8332
CA -29.2157 3.01286 53.3349
CA -11.088 -7.95417 37.4483
CA -1.22885 -29.6505 71.2063
CA -12.3565 16.0588 15.0853
CA -14.6263 -4.22251 50.6929
CA 11.8153 -8.35486 46.3093
CA -19.9147 2.10095 69.3036
CA -10.727 -10.9343 42.863
CA -24.3505 -0.864362 51.8829
CA -14.0465 -9.08519 26.2504
CA 0.237747 18.7339 46.3713
CA 1.15667 -14.2315 53.7441
CA -3.22247 -2.11406 60.1584
CA -1.19804 7.23025 45.7432
CA -17.0987 -4.12596 46.9582
CA -32.1438 -16.2228 54.5414
CA -7.5895 -1.96889 69.8312
CA -32.5064 -6.03195 33.5896
CA -33.043 -14.6033 51.7143
CA -10.5707 -8.41523 27.5219
CA 5.55304 -12.1234 55.1474
CA -11.9611 -10.365 34.1471
CA -21.5349 -28.4891 35.7666
CA -13.5189 -12.5294 50.5942
CA 0.289701 -13.8725 66.4147
CA -29.6412 -52.3946 50.9789
CA -34.2883 -13.1537 37.8698
CA 2.06528 8.31342 52.8003
CA -3.48678 4.51496 65.9793
CA -1.38788 -4.26759 17.1823
CA -14.1947 1.26811 26.2097
CA -8.02296 15.1736 34.1838
CA -2.35257 3.95473 55.2421
CA 16.2469 -6.86018 39.7683
CA -7.77148 24.4305 37.992
CA -8.59312 -1.2855 37.0949
CA -20.3963 -3.10615 56.3972
CA -18.3005 -24.6001 38.6985
CA 4.24204 2.60427 47.2587
CA -10.3879 14.3843 63.5847
CA -14.0046 -26.3258 37.3646
CA -24.6364 5.16584 60.1834
CA -11.5856 -13.8622 25.4697
CA 3.9757 -18.5221 56.2995
CA -14.2888 14.5356 40.4968
CA -17.4206 -10.312 37.4021
CA -31.3438 -11.4016 53.3709
CA -32.7387 -11.6793 37.0451
CA -8.9378 1.79725 59.6025
CA -8.9689 16.6056 42.2266
CA -8.0862 -24.8708 42.7851
CA -28.917 -48.1732 50.8405
CA -30.1208 -52.0533 49.2236
CA -8.79525 0.522436 46.9984
CA -20.4131 -19.1451 55.4786
CA 3.56879 0.872897 58.9708
CA -17.431 -25.3077 52.7265
CA 11.1524 10.944 61.7473
CA -21.1782 6.06419 66.4148
CA -4.88627 -7.18768 59.2166
CA -6.21857 -12.0434 55.8948
CA -23.3626 -26.8337 35.0549
CA 17.9198 1.29973 36.489
CA -7.97927 -30.2767 50.4606
CA -6.25495 -40.4212 70.1128
CA -3.49208 15.8024 46.4428
CA -9.34413 15.375 22.2153
CA -1.47142 -4.06894 14.9105
CA -28.7993 -54.3054 53.3322
CA -8.93468 12.2684 59.2489
CA -19.6426 1.71427 62.5844
CA -9.68769 9.45823 66.7164
CA -28.6145 -4.88248 56.7208
CA -7.66828 -21.9986 57.7221
CA 16.0066 -3.20185 51.4309
CA -13.1479 -30.2151 37.0524
CA 0.74465 -25.9514 52.6373
CA 8.13256 11.1001 58.1811
CA -23.135 -10.9281 43.5244
CA 19.1462 -24.6043 49.7045
CA -7.49698 23.9923 54.9493
CA 7.47386 8.18153 54.7202
CA 16.8362 13.4126 54.4381
CA -28.9536 -7.47747 52.3795
CA 4.17421 -25.1894 65.0262
CA 15.1486 2.39298 37.4414
CA -14.3125 -6.20834 49.3179
CA -8.84521 -9.51707 43.514
CA -6.08359 16.8783 29.975
CA -37.7907 -13.32 37.1603
CA -18.5445 6.76094 61.3684
CA -29.9397 -21.7034 49.8125
CA -24.3391 -9.00641 40.1652
CA 4.65955 -23.3588 45.1446
CA -40.1122 -20.5292 47.7014
CA -15.977 -3.87972 41.2215
CA -16.819 -19.897 38.6422
CA -12.1847 -9.31485 23.4935
CA -9.46813 -15.1797 43.829
CA -22.7065 -5.87 40.2136
CA -20.4025 -4.56035 35.0467
CA 3.25494 -26.8839 62.6735
CA 10.1349 -26.0044 51.2681
CA -19.2887 -21.9404 53.7725
CA -9.69228 -7.0869 23.0339
CA -6.41713 -20.6973 57.6523
CA -7.15507 -8.49856 22.9286
CA 14.6299 -29.5372 52.5539
CA -31.5933 -7.28444 54.8077
CA -9.56369 -3.04402 40.575
CA -16.1562 -24.8545 46.4396
CA -18.8111 4.71398 67.5352
CA 5.12673 -36.2431 63.4911
CA 3.05679 -24.224 52.702
CA -33.0528 -7.37796 35.3584
CA -6.66596 -11.9157 29.0648
CA -10.8682 6.29726 58.1197
CA -6.12405 -5.32067 28.3927
CA -5.85761 -7.49965 61.609
CA -23.3696 -25.1977 33.7014
CA 8.67951 -21.0529 47.1983
CA 2.55702 -22.9124 50.1086
CA -3.48071 -31.0534 66.7499
CA -16.6276 2.68202 43.4179
CA -30.9824 -10.226 27.9071
CA -13.5497 21.7433 58.1246
CA -6.63417 -32.7846 46.9321
CA -7.0915 -2.24165 58.0262
CA 14.9348 -25.6419 52.8539
CA 3.50183 -15.8366 44.4272
CA -2.34205 -39.8004 66.7928
CA -20.4857 4.63864 43.2851
CA -17.6616 -13.7317 47.9842
CA -0.64085 -34.0883 45.2871
CA 14.9925 -18.1578 45.4391
CA -22.6795 -2.35043 52.3163
CA 5.79499 -24.2413 65.9778
CA -6.66725 -21.7859 55.5857
CA -1.37054 -15.4947 21.5411
CA -0.870722 -43.9721 61.6454
CA -28.6982 -20.9446 45.4433
CA -22.1206 -11.497 35.4862
CA -21.2163 -11.4811 64.8059
CA 5.34559 3.08281 55.1853
CA -11.6238 4.53903 70.2325
CA -0.748178 -29.285 62.1865
CA -14.0529 -9.92118 30.8508
CA -31.2959 -9.26613 52.3713
CA 10.982 8.49004 63.0472
CA -6.5313 -12.9478 42.7893
CA -13.7147 1.13648 42.3905
CA -5.54575 -22.8119 57.6628
CA -30.313 -14.4131 54.9496
CA -31.6718 -13.8852 44.9544
CA -20.1768 -31.2443 51.2948
CA -7.79056 15.5196 32.3971
CA -7.24886 -2.02573 42.842
CA -0.586298 -28.103 73.8595
CA -12.3795 -11.9709 43.2104
CA 12.4221 9.2483 59.6502
CA -16.6699 -11.0423 42.3595
CA -4.13287 -5.36979 20.9797
CA -15.7669 3.79915 49.4429
CA -20.732 -7.54542 60.1064
CA -6.23981 -38.4434 63.5941
CA 8.44035 11.8304 40.5975
CA 16.9 -16.1142 47.2974
CA 15.3379 -20.3651 45.7069
CA -11.5219 22.5207 52.1033
CA -11.3742 -15.0448 68.0216
CA -13.2024 16.6013 64.9369
CA -4.49602 19.0328 33.3868
CA -13.3622 4.30404 62.3737
CA -14.211 -21.641 32.186
CA -17.38 15.683 59.3047
CA -29.6276 -37.0315 49.1047
CA -4.05699 13.9019 28.3662
CA -33.9505 -16.542 43.3046
CA -4.0282 -16.3124 53.9551
CA -1.9213 -4.69009 65.9262
CA -10.8925 -11.1134 45.2823
CA -20.1069 3.09658 41.6672
CA -5.36989 -11.3855 39.1762
CA -4.19878 -35.6251 48.4664
CA -7.26591 20.34 42.59
CA -13.0029 1.52895 44.0062
CA -4.4935 -32.7457 48.3302
CA -12.6561 -5.7064 48.0975
CA -24.4149 2.26141 57.8641
CA -29.2091 -12.3271 49.9713
CA -16.669 -3.50475 49.6506
CA -0.200177 -30.5943 41.0555
