489

CA -5.249 8.20896 50.4717
CA -0.0702549 -28.9383 55.2878
CA -13.0059 -23.4426 55.291
CA 14.5015 18.6062 44.2104
CA 13.3024 9.65467 43.0011
CA 11.8205 9.36935 41.9178
CA 4.20549 -13.2933 54.2008
CA -26.7558 -12.9072 54.422
CA -13.545 -25.4254 60.8741
CA 3.39733 -15.2749 53.088
CA -33.8048 -29.5254 47.478
CA -4.60697 -30.0478 45.9024
CA -30.3879 -14.5307 38.8392
CA 5.13738 -9.33809 68.7141
CA -14.0589 25.895 36.8521
CA -12.9072 -12.4752 48.8607
CA 18.2436 -22.7038 52.8386
CA -6.23898 -19.9733 67.6793
CA 3.03234 2.88484 44.257
CA -9.65955 -8.45858 31.2124
CA -28.7756 -4.3809 67.186
CA -9.11749 -5.91812 19.075
CA -28.335 -16.8411 52.8404
CA 6.76276 3.26642 53.2658
CA -9.06046 -0.761341 39.4243
CA -2.67753 -3.59052 22.9445
CA 3.71145 3.89041 54.2271
CA -30.5924 -24.6267 50.5152
CA -18.821 -9.19964 25.3996
CA -18.5805 -7.78127 38.989
CA -9.68952 -32.9837 57.457
CA -3.32073 -6.21072 27.8715
CA -32.5317 -8.55915 31.5979
CA -27.7683 5.48425 53.7618
CA -19.1006 -11.6627 40.3784
CA -11.2975 4.16647 62.8813
CA 9.33656 -12.2576 50.0419
CA -38.7951 -11.1681 29.7262
CA 0.702144 -6.72171 56.2428
CA -1.15438 -36.4354 62.4294
CA -3.20897 17.1405 41.739
CA -24.8145 -36.9964 50.5825
CA -11.0039 -6.21735 43.7871
CA 14.4241 10.7105 59.3494
CA -6.28819 -34.3442 47.9339
CA -7.97865 20.3026 47.4406
CA 2.87625 -39.7481 76.1706
CA 2.09223 -6.82068 16.9299
CA 6.24993 -17.844 55.6901
CA -1.69101 -34.9984 55.5632
CA -7.39729 -0.347278 42.1847
CA -6.80444 -35.3383 52.2948
CA -12.0132 -21.1382 66.1628
CA 8.73006 11.2454 53.4063
CA 1.2547 12.8979 48.4724
CA -5.70545 -27.2104 62.9798
CA -17.752 -2.83869 60.2733
CA 2.55946 14.3892 47.4131
CA 0.723742 -7.55887 19.3371
CA -8.84113 18.8106 40.6876
CA -17.9682 -7.99746 59.3392
CA -25.0307 0.337003 66.8354
CA -5.63147 -27.4349 53.6622
CA -26.2686 -3.91446 42.4013
CA -11.2431 -26.3082 59.2147
CA -7.27621 22.2011 55.5497
CA 5.13033 2.10951 53.2812
CA -11.6635 -27.6338 62.1473
CA -5.15264 -7.74883 27.5598
CA -16.1596 -25.1322 38.7835
CA -28.8679 2.03709 51.2495
CA -8.33301 -2.09189 61.2543
CA -33.1699 -18.2233 55.3833
CA -10.5727 21.8278 53.5975
CA -13.9852 -12.5804 24.9546
CA -18.6863 -1.17008 59.8753
CA -10.7302 -37.8597 69.1175
CA -5.59375 15.7246 40.0586
CA -6.37758 9.41633 47.5152
CA -33.4676 -14.5282 54.1973
CA -33.0281 -10.0522 50.8321
CA -1.0963 -32.8806 55.9926
CA -11.474 -28.6385 40.6252
CA -6.54696 -10.286 22.7154
CA -38.2335 -26.6145 44.9655
CA -20.4347 -6.78677 45.5963
CA -14.6395 1.11001 67.6559
CA -38.7563 -8.69489 29.2423
CA -12.6055 -13.8414 15.7683
CA 3.18411 12.7887 46.5877
CA -6.50557 -32.8111 66.4121
CA -13.5359 -25.0716 36.7232
CA -16.8233 -15.0628 33.0631
CA -13.4005 -7.72643 30.1619
CA -30.3573 -9.77554 52.4358
CA -3.00615 -35.6749 52.2505
CA -2.31136 -11.4356 66.3895
CA 9.81492 -13.0012 47.6599
CA -15.1972 -17.9721 41.8176
CA -10.5368 -28.6719 58.7142
CA -10.0599 20.0828 36.1907
CA -16.2552 -27.719 39.2352
CA 3.74948 6.79088 58.0972
CA -12.3486 -23.1222 61.0516
CA -0.529964 -18.4434 64.6532
CA -34.8948 -14.9526 59.2895
CA -17.5284 2.36181 70.5638
CA -0.601211 6.87575 43.039
CA -4.12077 20.5903 31.6113
CA -37.64 -25.5089 50.9519
CA -19.0353 6.05796 59.5439
CA -8.51409 -12.3784 39.3275
CA -12.7508 -26.086 65.946
CA -5.63289 7.28786 52.2958
CA -21.3461 -21.2864 56.4258
CA -11.8489 10.2538 22.1812
CA 7.5488 6.53766 46.3522
CA -17.7393 -5.82184 38.18
CA 0.813149 -14.9694 52.1635
CA -17.4893 -13.4298 29.5746
CA -26.6907 2.79417 53.6822
CA -6.0628 -28.0591 49.6839
CA -9.57546 20.7261 38.0232
CA -13.592 -18.8348 45.0061
CA -11.5205 -5.49711 47.8224
CA -27.3185 -19.8368 57.1637
CA -2.24791 7.7755 66.0668
CA -32.9465 -9.47451 57.1677
CA -6.67064 11.4255 49.2673
CA 0.968145 -17.034 59.2937
CA -35.6506 -13.829 35.6838
CA -7.59967 -21.0875 64.3986
CA -18.6805 -8.66218 37.4159
CA 17.7622 -20.9852 55.8672
CA -26.4791 -23.8318 38.4872
CA -30.0938 -7.7703 60.7126
CA 5.80685 10.2497 56.0987
CA -14.4988 -14.5172 39.669
CA -9.05963 11.7106 16.8901
CA -37.4409 -7.18572 37.6298
CA -3.60105 16.4601 28.5909
CA -1.21295 -33.8047 42.6466
CA -12.8291 17.0538 44.0164
CA -3.89022 -26.3371 56.8008
CA -17.3348 -2.54214 65.1133
CA 1.67094 7.98632 46.3435
CA -4.40413 -25.717 49.6434
CA -25.2001 -40.7185 48.2277
CA -27.8473 -35.4766 47.5151
CA 3.19275 -7.4633 20.3155
CA 2.00974 -16.8975 52.5171
CA 11.0344 8.89491 56.5366
CA -20.526 -3.38229 63.8048
CA -9.37641 -4.43677 14.9917
CA 2.64042 -17.0359 57.8303
CA -3.7103 -15.4232 39.0501
CA 1.34705 -13.5622 56.1586
CA -11.3403 -31.8396 67.3207
CA -13.6579 26.394 43.7863
CA 5.53633 -4.19118 58.8428
CA -7.84224 13.7527 44.8003
CA -11.4571 -35.209 67.0746
CA -12.4424 -9.8572 42.9318
CA -21.7179 -16.4695 49.294
CA -7.57481 1.3369 37.7198
CA -15.698 0.991622 65.5542
CA -4.3777 -34.8381 50.7136
CA 9.6485 7.86787 46.0314
CA -28.3064 -13.5898 58.4734
CA -3.5501 -29.3831 63.2675
CA -16.9526 9.43726 57.8109
CA -18.4639 -11.9761 45.9496
CA -20.6702 -28.7678 37.6384
CA 3.5933 3.28242 52.0313
CA -5.55078 7.87992 64.2363
CA -8.79444 -39.205 79.631
CA -6.85142 -31.6197 52.2419
CA -22.1082 -12.5925 54.4445
CA -29.7489 5.73147 52.4364
CA -9.21583 2.60128 41.5815
CA -22.0077 -34.9563 49.2589
CA -26.022 2.44694 56.6953
CA -4.46852 18.846 30.9535
CA -10.6155 -32.0631 70.2114
CA -8.53945 14.0266 25.4892
CA -8.28385 -10.0069 56.8869
CA 1.34149 -23.5212 52.7971
CA -21.1484 -0.596029 62.8482
CA 1.99039 -19.5016 55.6412
CA 2.80805 -2.62126 62.6141
CA -36.4717 -5.73435 25.1072
CA 4.21117 12.1144 59.8655
CA -7.76115 20.5598 37.8906
CA -11.0668 -6.12785 14.7938
CA -7.39918 -31.3785 65.3979
CA -8.98702 -22.9619 58.7551
CA -11.6277 -16.6043 50.2573
CA -5.38057 -39.1844 78.3596
CA -5.3245 10.9256 47.477
CA -32.2929 -7.54419 57.1777
CA -8.0352 -33.7638 61.9256
CA -0.578518 4.16234 39.9976
CA -2.65118 -32.0657 57.3212
CA -6.8621 -17.9224 63.1328
CA -12.6112 -19.3279 50.5969
CA -8.00107 -39.6287 73.2237
CA 16.5992 17.6785 45.1318
CA 3.62928 2.86438 59.3979
CA 0.147378 -22.0209 52.0892
CA -22.6089 -44.5014 54.0107
CA -26.9809 -12.911 38.063
CA -8.85464 -14.4714 34.4354
CA -4.57605 -32.9049 55.6394
CA -13.4664 -17.368 51.4718
CA -12.0638 -2.99829 12.2458
CA -3.19162 9.80207 52.1178
CA -1.03532 5.42188 55.5699
CA -3.7633 26.1252 29.4988
CA -8.85102 16.9904 30.1961
CA -2.51058 -8.18017 17.8437
CA 2.313 -10.8309 50.6102
CA 1.38241 -28.0116 53.417
CA -23.3437 0.497377 65.609
CA -8.70393 12.6716 63.5786
CA -21.4852 -36.2548 52.7776
CA -4.75459 -31.9814 62.1422
CA -4.01291 14.8765 24.4541
CA -6.73306 -7.25677 26.5191
CA -29.2757 -20.2822 56.9455
CA -31.6745 -15.1828 49.972
CA -16.9664 -13.9866 52.3044
CA -13.2757 -5.02713 39.1296
CA -21.729 -23.0464 46.7381
CA -31.6892 -8.76946 50.1503
CA -21.0243 0.011031 54.6455
CA -16.7905 3.60576 66.3492
CA 10.5293 14.6321 49.3258
CA -28.1795 -42.5214 51.4097
CA -10.8279 -11.3105 23.2191
CA -39.2058 -9.34172 40.5232
CA -11.7815 -6.80831 32.6842
CA -13.2254 -9.06804 38.2247
CA -33.5885 -14.0861 41.8187
CA 4.53727 8.69879 43.6961
CA -20.5649 2.32652 45.864
CA -15.5598 -26.1814 40.1243
CA -32.2887 -28.8597 50.3955
CA -6.05986 12.1345 66.0236
CA -2.30195 -15.8442 65.4832
CA -9.21815 -2.1205 24.5604
CA -7.22194 -15.3181 36.4962
CA -38.7932 -13.9672 38.7173
CA -15.6737 -30.3662 60.3762
CA -20.0611 3.75267 67.39
CA -12.517 2.0255 44.9867
CA -32.1232 -17.1687 44.7921
CA -9.13697 -12.1705 67.8187
CA -6.64094 -13.0758 36.9044
CA -11.727 14.7914 17.3041
CA -17.887 -24.5502 39.0337
CA -29.181 -14.0531 51.7348
CA -13.0035 -25.8541 62.6941
CA -19.2264 10.4553 54.6647
CA -17.9388 -26.8419 36.7135
CA -10.4855 -8.58707 52.6194
CA -13.9601 4.76785 50.4921
CA -21.2304 -28.1619 51.8543
CA -11.5351 -5.47765 29.0155
CA -2.8674 11.0559 50.2992
CA -21.4378 -19.7756 47.8815
CA -4.7071 -34.8779 55.5858
CA 13.5902 16.2606 49.8148
CA 4.6674 -10.4667 65.5659
CA -24.1529 -34.289 50.8658
CA -11.9394 -7.85119 49.499
CA 20.5838 -26.9157 54.0489
CA -32.1524 -10.6667 53.3028
CA 6.84766 -29.5317 50.7702
CA 14.6306 4.30577 46.8787
CA -15.6925 -7.22894 24.5728
CA 6.14435 -2.10888 59.0105
CA -10.6688 -1.42001 28.8526
CA -14.7256 -28.9889 34.808
CA -31.9432 -8.57779 60.7398
CA 6.83527 -9.15195 54.4881
CA -3.53001 22.7631 36.6227
CA -2.55317 -5.48977 53.5036
CA -5.24623 23.1288 34.1155
CA -9.14205 -14.2582 53.2231
CA -5.65812 -29.9418 51.3349
CA -9.43681 12.0678 21.2351
CA -13.1493 -4.28859 67.9217
CA -7.69878 8.92449 19.4058
CA -28.25 -10.4132 50.144
CA 4.1046 8.51307 53.1947
CA -0.860133 -6.94709 16.0412
CA -15.6102 -9.64127 29.6591
CA -31.1418 -17.1677 60.1283
CA -30.1215 -16.0711 53.8789
CA -15.7858 1.50719 46.0571
CA -8.32159 -8.40685 55.7993
CA -8.03732 -31.4097 69.4718
CA 11.8153 -8.35486 46.3093
CA -19.9147 2.10095 69.3036
CA 18.7049 -20.455 58.6233
CA -8.40957 -18.0543 54.3035
CA -14.0465 -9.08519 26.2504
CA -24.4231 -5.47486 56.1102
CA -7.47944 -23.8167 65.7477
CA 0.0075034 -7.75752 23.6971
CA -40.0559 -8.22882 30.4324
CA -7.6292 -35.8348 42.5977
CA -37.1774 -13.15 36.9447
CA -12.9575 -12.2117 61.0266
CA -3.48211 23.1103 32.1894
CA 1.73052 1.27469 49.6454
CA -12.6705 -2.06604 28.1378
CA -30.3073 -5.0596 56.1154
CA -13.6194 -18.7476 59.5831
CA -21.5349 -28.4891 35.7666
CA 0.490067 -7.30988 65.7002
CA -2.61044 -11.0471 63.9157
CA 5.2638 6.42167 48.381
CA -28.6883 -36.6724 53.3259
CA 2.06528 8.31342 52.8003
CA -18.1888 -23.5055 55.0111
CA -5.25942 -22.9364 57.29
CA -11.3741 -9.39415 13.5307
CA -7.40324 -27.986 47.399
CA -8.4059 -29.5098 46.8185
CA -26.6545 -45.6875 54.1172
CA -15.1716 -13.7057 18.8903
CA -8.59312 -1.2855 37.0949
CA -9.50897 19.5471 49.0039
CA -22.4693 1.8167 56.2718
CA -4.61861 -40.1727 64.6207
CA -38.7631 -11.822 27.9613
CA -27.5684 -36.7059 51.0792
CA -31.8248 -13.0675 57.4518
CA -11.5856 -13.8622 25.4697
CA 3.9757 -18.5221 56.2995
CA -26.5753 -19.1942 48.9149
CA -1.71787 2.3598 53.3893
CA 6.73978 -0.904245 53.6963
CA 3.27494 -5.8918 60.5002
CA -5.25092 -11.6241 63.1437
CA -8.9689 16.6056 42.2266
CA -8.0862 -24.8708 42.7851
CA 14.6354 3.04622 49.0151
CA 5.57335 -14.8016 55.7288
CA 15.2242 -20.6901 55.6996
CA -28.272 -19.5518 55.4384
CA -5.58172 -23.2178 47.0449
CA -5.0323 -30.7327 58.9845
CA -34.5362 -12.3575 53.2982
CA -8.68944 -11.1064 64.7132
CA -9.04444 -2.46416 43.2635
CA -33.932 -32.031 51.3709
CA -13.7536 -4.41534 33.0992
CA -13.777 -8.20727 33.2363
CA -15.964 -21.302 50.3205
CA -8.46809 20.2564 51.6345
CA 5.74927 -5.00894 62.2463
CA -19.8742 -32.0009 59.5989
CA -6.61995 -39.5606 67.6085
CA -9.04979 -26.5971 56.0666
CA -30.7654 -7.51534 46.4188
CA -9.02572 15.846 38.5102
CA -9.68769 9.45823 66.7164
CA -28.6145 -4.88248 56.7208
CA 18.1536 -25.1823 52.2308
CA -4.73044 -9.24346 65.2168
CA 0.871767 4.80286 43.6449
CA -16.6363 -1.92461 37.2653
CA -25.4452 -45.8577 52.0292
CA -23.135 -10.9281 43.5244
CA 19.1462 -24.6043 49.7045
CA -8.02249 -12.4706 35.2388
CA -2.91078 -41.1937 63.6907
CA 8.39356 8.0666 57.5537
CA -28.9536 -7.47747 52.3795
CA -12.8603 -26.225 57.5366
CA -14.766 9.29836 23.2192
CA -22.0998 -8.86474 57.2356
CA -12.8284 -28.8027 56.8646
CA -2.59756 -39.4718 74.5062
CA -5.30934 -36.1465 54.438
CA -10.7142 1.24874 11.5771
CA -29.9397 -21.7034 49.8125
CA 9.34702 -16.2124 52.1071
CA 3.74574 -28.3759 52.9637
CA -7.79379 -25.4457 49.7495
CA 1.43885 -11.8975 63.5121
CA -15.8506 -7.35444 40.904
CA 13.208 20.4693 41.2309
CA -17.7044 -6.82361 48.1064
CA -22.7065 -5.87 40.2136
CA -9.85077 -24.8867 64.4933
CA 2.69023 13.2459 44.5601
CA 10.1349 -26.0044 51.2681
CA -36.6133 -6.66316 26.7529
CA 0.564753 -5.28324 59.0592
CA -15.4517 4.67834 65.4835
CA -35.0011 -12.323 59.7724
CA -36.415 -16.0123 59.3627
CA -31.5933 -7.28444 54.8077
CA -8.33299 -4.62596 32.5478
CA -16.1562 -24.8545 46.4396
CA 3.14958 11.3775 48.4747
CA -9.82915 -7.08423 12.5079
CA -9.37066 -31.0776 58.2778
CA -33.0528 -7.37796 35.3584
CA 0.926338 5.97837 51.1312
CA -9.51771 -29.1083 61.0661
CA -22.7094 -11.3489 23.8663
CA -35.8627 -26.8235 49.0709
CA 12.3965 7.96488 51.5692
CA 15.2115 -23.9304 50.1256
CA -7.24758 -30.0494 64.0212
CA -2.02931 -5.23357 20.903
CA -16.0135 -4.66229 58.2277
CA -30.9824 -10.226 27.9071
CA -18.6394 2.48831 72.4596
CA -6.63417 -32.7846 46.9321
CA -23.733 -19.5964 48.2306
CA -8.99762 -25.7285 44.0913
CA -24.1094 -7.61186 40.3395
CA 0.996822 -8.81329 50.986
CA -20.4857 4.63864 43.2851
CA -22.2897 -20.9778 45.4892
CA -11.5051 -13.0897 62.2308
CA -12.9432 24.3512 38.3729
CA -22.6795 -2.35043 52.3163
CA 6.07462 4.57208 55.2018
CA -6.66725 -21.7859 55.5857
CA 3.98026 -15.4963 56.818
CA -17.4783 2.07166 67.6747
CA -31.8205 -11.8018 35.9868
CA 10.9167 7.61653 47.6326
CA -19.4711 -24.6274 53.1576
CA -24.4508 -9.40215 57.9537
CA -10.696 -10.4565 34.1059
CA -10.3671 -2.74718 65.7886
CA -13.4828 -28.5774 38.5171
CA -10.7299 -22.3956 64.8378
CA -20.1059 -0.710155 35.8017
CA -30.9263 -7.46636 64.1575
CA -1.77705 -33.1532 58.9373
CA -11.6485 26.8312 39.3718
CA -27.1099 -33.8343 52.53
CA 8.07191 -16.2435 49.6311
CA -20.1768 -31.2443 51.2948
CA -13.519 23.0976 55.9448
CA 4.44555 -10.4496 52.7176
CA -3.52049 11.1897 47.427
CA -25.6692 -38.2244 49.5756
CA -11.582 -22.5816 56.5288
CA -0.773976 -41.0084 79.7746
CA -4.23748 -31.4522 48.9981
CA -7.49852 5.60138 63.2968
CA -3.76299 -36.3409 49.1612
CA 5.88727 -24.5126 47.6832
CA 8.44035 11.8304 40.5975
CA 16.9 -16.1142 47.2974
CA -18.2316 5.53377 65.2515
CA -23.3854 -10.9666 22.2348
CA 0.353755 -11.0444 53.8025
CA -3.34766 -9.15142 15.5272
CA -6.17445 -8.6349 54.8844
CA -13.3622 4.30404 62.3737
CA -15.1636 -0.110949 62.1364
CA -16.2874 -20.3097 53.597
CA -23.2125 -26.9912 38.7813
CA -12.1378 17.6233 47.6053
CA -24.6978 -23.3173 50.8817
CA -7.23625 -13.8273 54.5416
CA -6.46637 -7.64411 30.683
CA 7.52285 3.25378 46.0749
CA -9.36638 -3.78199 27.704
CA -33.2903 -6.68788 41.7273
CA 3.05653 -6.12662 18.5447
CA 5.08911 -6.50014 59.4739
CA -14.1775 -16.5256 44.8801
CA -40.1913 -12.9137 35.0411
CA -30.6029 -18.4577 58.7957
CA -13.2513 16.1516 48.4398
CA -9.69374 -6.64718 20.7525
CA 17.705 20.7651 43.1754
CA -32.4218 -6.20233 36.9963
