489

CA -24.0206 2.73587 66.9322
CA -0.0702549 -28.9383 55.2878
CA -13.0059 -23.4426 55.291
CA 14.5015 18.6062 44.2104
CA -2.67806 8.22406 43.9094
CA 11.8205 9.36935 41.9178
CA -8.64978 4.33044 67.1914
CA 19.7795 -20.9851 53.3877
CA -16.0101 -15.6362 26.3438
CA 3.39733 -15.2749 53.088
CA -7.74377 -28.9553 51.0844
CA -4.60697 -30.0478 45.9024
CA -30.3879 -14.5307 38.8392
CA -11.1944 23.267 34.8904
CA -15.1398 -1.23114 67.3278
CA 8.3486 2.47507 51.0123
CA -14.9227 6.36833 45.756
CA -23.1575 -11.3698 21.5947
CA 3.03234 2.88484 44.257
CA -9.65955 -8.45858 31.2124
CA -28.7756 -4.3809 67.186
CA -9.11749 -5.91812 19.075
CA -28.335 -16.8411 52.8404
CA -9.45044 11.6507 31.2858
CA -8.75309 -20.5362 66.5292
CA -2.67753 -3.59052 22.9445
CA -37.5285 -35.4109 46.8902
CA -30.5924 -24.6267 50.5152
CA -18.821 -9.19964 25.3996
CA -14.0591 -27.2553 35.7757
CA -10.4677 -8.09638 33.96
CA -3.32073 -6.21072 27.8715
CA -7.97163 -12.0472 32.1259
CA -10.9746 -4.82677 27.1897
CA -9.05304 9.49221 23.7433
CA -11.2975 4.16647 62.8813
CA -20.536 5.52281 48.5144
CA -34.8832 -32.5677 44.968
CA -8.0808 0.784045 64.6235
CA -37.1742 -29.8538 42.7318
CA -2.61785 -41.8677 76.0672
CA -24.8145 -36.9964 50.5825
CA -11.0039 -6.21735 43.7871
CA -1.78897 -16.8881 40.826
CA -6.28819 -34.3442 47.9339
CA -36.8175 -16.2997 52.9403
CA -12.4139 -9.34881 17.995
CA 11.3606 15.518 39.7472
CA 6.24993 -17.844 55.6901
CA -29.1584 -6.41086 36.6958
CA -12.4568 -40.7275 67.0993
CA -6.80444 -35.3383 52.2948
CA -15.2967 -22.7828 54.9353
CA 8.73006 11.2454 53.4063
CA -12.0034 -23.1331 67.8892
CA -7.82653 20.0299 38.4888
CA -12.1167 -4.59334 62.2927
CA -2.73074 -44.6456 75.0965
CA -23.4167 6.384 59.2196
CA -8.84113 18.8106 40.6876
CA -4.75504 -27.1258 45.7641
CA -7.47608 13.4115 38.318
CA -38.2101 -10.8299 57.1199
CA -0.703714 17.3368 58.9643
CA 18.157 16.3714 45.7774
CA -7.27621 22.2011 55.5497
CA -5.73017 -34.4835 57.2506
CA -11.2754 -3.16822 44.5224
CA -5.15264 -7.74883 27.5598
CA -0.942511 -3.89177 17.9504
CA -13.5608 4.84667 67.1953
CA -8.33301 -2.09189 61.2543
CA -16.815 -29.5586 62.3448
CA -13.322 3.65271 32.1745
CA -32.7921 -9.96959 43.7897
CA -18.6863 -1.17008 59.8753
CA -10.7302 -37.8597 69.1175
CA -5.59375 15.7246 40.0586
CA 24.242 -18.8909 55.8208
CA -7.29345 -30.4811 58.7342
CA -33.0281 -10.0522 50.8321
CA 4.11478 -4.60071 60.7722
CA -11.474 -28.6385 40.6252
CA 2.99924 -7.99741 64.2385
CA -38.2335 -26.6145 44.9655
CA -20.4347 -6.78677 45.5963
CA 3.4602 -14.8784 58.4568
CA -27.1754 -12.0345 55.2219
CA -10.3062 -5.93197 60.0108
CA -5.17004 -34.4449 44.4191
CA -6.50557 -32.8111 66.4121
CA -2.76544 -22.5294 44.7933
CA -16.8233 -15.0628 33.0631
CA -2.87493 -16.4426 35.9085
CA -30.3734 -7.39448 48.3108
CA -27.3384 -21.5416 57.9625
CA -11.0344 -20.3655 64.7783
CA 1.10315 -7.19329 20.3541
CA -15.1972 -17.9721 41.8176
CA -1.07079 -9.08177 26.2693
CA -10.0599 20.0828 36.1907
CA -5.54467 -10.3896 52.8109
CA 3.74948 6.79088 58.0972
CA -18.2113 -13.6041 37.4946
CA -0.529964 -18.4434 64.6532
CA 0.815281 -36.6096 61.7361
CA -17.5284 2.36181 70.5638
CA 15.4022 22.0163 43.1324
CA -14.0058 -27.908 65.7179
CA -6.31202 -24.0807 51.0971
CA -21.4549 -12.1657 47.9685
CA -21.4127 3.56108 54.2651
CA 6.28816 -30.2984 48.5767
CA -19.0886 7.14619 55.6249
CA -21.3461 -21.2864 56.4258
CA -2.01319 -6.96621 63.0894
CA 14.9715 -18.3864 53.5531
CA -17.7393 -5.82184 38.18
CA -14.7734 -13.9554 33.4393
CA 4.29094 4.89803 51.5884
CA -26.6907 2.79417 53.6822
CA -6.0628 -28.0591 49.6839
CA 2.91174 -21.2931 53.3495
CA -14.3763 -12.5216 27.5193
CA -11.5205 -5.49711 47.8224
CA -33.7747 -11.0097 66.3501
CA -4.6748 -22.9665 53.1767
CA -7.0666 -6.00462 59.9142
CA -6.69887 -25.5008 47.2932
CA 1.63703 3.89588 57.718
CA 1.78351 2.29959 55.1018
CA -17.1329 -10.5718 29.688
CA -4.70792 4.98172 63.5947
CA 17.7622 -20.9852 55.8672
CA -0.872519 -3.86644 59.87
CA -25.5351 -19.0247 52.9233
CA -15.0913 -10.6955 27.2684
CA -14.4988 -14.5172 39.669
CA -9.05963 11.7106 16.8901
CA -37.4409 -7.18572 37.6298
CA -18.0546 5.97773 71.5005
CA -14.3858 -2.3382 33.2317
CA -9.48957 16.6757 40.635
CA 9.91659 -28.9467 52.8489
CA -2.11398 -6.63035 66.2115
CA -22.8304 -30.1373 47.9049
CA -16.7256 1.36048 57.8479
CA -17.786 4.87176 60.345
CA -7.43483 17.3215 24.1622
CA 10.6582 12.2556 37.0021
CA -18.2456 -13.5568 32.1731
CA -17.9395 15.5889 47.0014
CA -6.77231 3.506 60.3359
CA 22.9391 -27.3721 49.7591
CA -12.3608 1.96236 31.1177
CA -3.7103 -15.4232 39.0501
CA -20.4168 -23.8387 36.5345
CA -15.7416 -9.61624 40.9797
CA -13.6579 26.394 43.7863
CA -35.8065 -13.1462 44.9809
CA -7.84224 13.7527 44.8003
CA -8.28999 9.11361 49.5178
CA -11.4636 -8.3808 61.6539
CA -2.93979 20.7352 57.1406
CA -6.09353 4.884 47.2891
CA -29.1554 1.68106 55.2752
CA -41.6556 -15.9615 35.3747
CA 9.6485 7.86787 46.0314
CA -28.3064 -13.5898 58.4734
CA -10.6232 -17.0693 56.2893
CA -16.9526 9.43726 57.8109
CA -18.4639 -11.9761 45.9496
CA -9.59664 -3.32839 58.0828
CA 3.5933 3.28242 52.0313
CA -14.9198 3.00459 49.9774
CA 5.85281 -12.0661 57.7821
CA -5.64491 -32.0858 69.7161
CA -9.38588 -37.4843 39.9489
CA -11.905 -8.2126 20.7684
CA -15.8129 -0.763691 72.9822
CA -5.19453 8.90981 45.6878
CA -26.022 2.44694 56.6953
CA -4.46852 18.846 30.9535
CA -25.5963 -13.276 23.6754
CA -8.53945 14.0266 25.4892
CA -11.1415 24.8843 53.5203
CA -15.5239 -31.4865 65.0426
CA -21.1484 -0.596029 62.8482
CA -12.5544 15.0027 45.3436
CA -5.36571 -26.642 47.7099
CA -12.1663 5.69886 62.2929
CA 4.21117 12.1144 59.8655
CA -1.36385 11.8135 46.016
CA -0.0822119 -7.41404 67.4681
CA -18.3324 -17.3288 60.7011
CA -3.05219 -10.4622 65.9125
CA -15.4183 -8.47032 62.3684
CA -17.6945 -30.6707 64.7536
CA -5.3245 10.9256 47.477
CA -4.98547 18.1335 48.2598
CA -6.71939 -33.5195 52.5717
CA 19.4094 20.2447 44.0181
CA -2.65118 -32.0657 57.3212
CA -26.7905 5.02317 54.1174
CA 4.06072 3.04155 46.7654
CA -8.00107 -39.6287 73.2237
CA 16.5992 17.6785 45.1318
CA 3.62928 2.86438 59.3979
CA -14.144 -17.0934 33.0045
CA -22.6089 -44.5014 54.0107
CA -6.80593 19.6735 50.0044
CA -12.3044 -18.625 49.5864
CA -4.57605 -32.9049 55.6394
CA -13.4664 -17.368 51.4718
CA -12.0638 -2.99829 12.2458
CA -7.0288 -10.2672 31.2272
CA -13.2142 -33.4695 41.5517
CA -3.7633 26.1252 29.4988
CA -8.85102 16.9904 30.1961
CA -2.51058 -8.18017 17.8437
CA -24.7649 -41.8307 48.2891
CA 1.38241 -28.0116 53.417
CA -12.4469 -9.38012 66.4116
CA -30.8143 -9.94532 35.5765
CA -21.4852 -36.2548 52.7776
CA -4.75459 -31.9814 62.1422
CA -35.8309 -31.9094 42.9828
CA -14.0543 -24.0343 67.136
CA 22.3069 -21.0664 57.6495
CA -31.6745 -15.1828 49.972
CA -16.9664 -13.9866 52.3044
CA -25.2514 -42.4999 53.2213
CA -25.6408 -34.2046 54.7415
CA -31.6892 -8.76946 50.1503
CA -14.1186 -27.5047 33.207
CA -12.0863 -27.9184 60.4109
CA 19.5758 -22.9192 50.1876
CA -28.1795 -42.5214 51.4097
CA -10.8279 -11.3105 23.2191
CA -8.72503 -16.4346 66.1292
CA -11.7815 -6.80831 32.6842
CA -13.2254 -9.06804 38.2247
CA -33.5885 -14.0861 41.8187
CA -17.1797 -19.0123 55.0357
CA -20.5649 2.32652 45.864
CA -13.1926 -4.28707 44.6977
CA -32.2887 -28.8597 50.3955
CA -6.05986 12.1345 66.0236
CA -2.30195 -15.8442 65.4832
CA -14.7386 -28.9803 63.0153
CA -7.22194 -15.3181 36.4962
CA -18.389 -33.0161 62.5264
CA -16.514 -4.23656 35.8881
CA -3.13159 -20.3727 54.1539
CA -15.7316 5.94777 48.2145
CA -33.106 -9.30118 62.5401
CA -22.7059 1.60564 54.0498
CA -6.64094 -13.0758 36.9044
CA -11.727 14.7914 17.3041
CA -6.54072 -9.91673 27.0584
CA -29.181 -14.0531 51.7348
CA -5.15873 -16.1394 65.9051
CA -38.5754 -8.17028 33.493
CA -17.9388 -26.8419 36.7135
CA 2.65128 -7.06123 67.795
CA -29.3416 -7.84364 40.4829
CA -21.2304 -28.1619 51.8543
CA -0.158559 -29.9335 57.0828
CA -28.3997 -18.4892 38.3891
CA 0.854313 11.9498 46.811
CA -25.8697 -35.2448 48.2674
CA 13.5902 16.2606 49.8148
CA 4.6674 -10.4667 65.5659
CA -24.1529 -34.289 50.8658
CA -11.9394 -7.85119 49.499
CA -7.83661 -20.1681 41.2968
CA -9.51205 -7.5781 14.6459
CA 6.84766 -29.5317 50.7702
CA 14.6306 4.30577 46.8787
CA -6.38092 -23.3201 45.3099
CA 6.14435 -2.10888 59.0105
CA -6.69562 -25.5565 55.0148
CA -14.7256 -28.9889 34.808
CA -31.9432 -8.57779 60.7398
CA 6.83527 -9.15195 54.4881
CA -3.53001 22.7631 36.6227
CA -2.55317 -5.48977 53.5036
CA -9.23125 -9.21409 46.6336
CA -42.3915 -20.8772 34.3214
CA -5.20718 -4.82561 21.3725
CA -4.52413 -20.5293 38.9053
CA -0.610357 1.31014 49.0108
CA -7.69878 8.92449 19.4058
CA -7.66373 21.8438 58.791
CA -5.03324 -23.0932 55.2922
CA 4.03459 -24.6977 56.8431
CA -18.4736 3.35125 46.9311
CA -31.1418 -17.1677 60.1283
CA 5.35404 -3.0446 61.7992
CA -15.7858 1.50719 46.0571
CA -8.32159 -8.40685 55.7993
CA -8.03732 -31.4097 69.4718
CA 11.8153 -8.35486 46.3093
CA -19.9147 2.10095 69.3036
CA 1.90234 -3.96417 59.6283
CA -33.6652 -13.2251 46.6646
CA -14.0465 -9.08519 26.2504
CA -24.4231 -5.47486 56.1102
CA -7.47944 -23.8167 65.7477
CA 0.0075034 -7.75752 23.6971
CA 4.78317 0.219362 56.322
CA -7.6292 -35.8348 42.5977
CA -8.23116 -28.6577 54.3648
CA -7.45314 23.1801 51.2314
CA -3.48211 23.1103 32.1894
CA -7.52653 6.98468 64.9206
CA -12.6705 -2.06604 28.1378
CA -25.361 -21.8232 41.2078
CA -13.6194 -18.7476 59.5831
CA -5.98414 -26.5002 59.5308
CA 5.43304 -18.2423 57.7834
CA -18.7312 -37.3621 53.4549
CA 5.2638 6.42167 48.381
CA -28.6883 -36.6724 53.3259
CA 2.01368 -6.12218 65.9297
CA 8.10609 -30.0665 49.1306
CA -40.2809 -15.0751 46.4784
CA -3.5313 -13.0083 68.975
CA -5.57662 -38.5358 63.6631
CA 2.97505 -6.08113 52.3854
CA -26.6545 -45.6875 54.1172
CA -9.21492 -29.3452 67.7855
CA -7.56873 7.8208 46.1309
CA -9.50897 19.5471 49.0039
CA -33.1217 -30.823 47.3116
CA -33.7042 -17.7642 53.8987
CA -38.7631 -11.822 27.9613
CA -9.51746 3.82184 65.1867
CA -31.8248 -13.0675 57.4518
CA -11.7574 -14.1689 27.4166
CA 3.9757 -18.5221 56.2995
CA 4.49122 1.53516 42.9855
CA -10.7469 18.271 38.3009
CA 6.73978 -0.904245 53.6963
CA -17.7908 -28.2161 59.2602
CA -7.28414 -18.9157 65.2234
CA -8.47346 -6.70278 56.6636
CA -8.0862 -24.8708 42.7851
CA 6.22748 -13.784 65.9033
CA 0.443702 -1.86367 64.4349
CA 15.2242 -20.6901 55.6996
CA -28.272 -19.5518 55.4384
CA -7.59665 11.714 25.6687
CA -1.16944 -21.2505 53.9469
CA -34.5362 -12.3575 53.2982
CA -8.68944 -11.1064 64.7132
CA -9.04444 -2.46416 43.2635
CA -28.3475 -6.7665 61.7207
CA -34.7231 -35.0811 45.4648
CA -6.07133 -11.1666 54.9018
CA -15.964 -21.302 50.3205
CA -8.46809 20.2564 51.6345
CA 5.74927 -5.00894 62.2463
CA -3.28228 4.86664 43.2237
CA -6.61995 -39.5606 67.6085
CA -9.04979 -26.5971 56.0666
CA -22.7515 4.94938 55.0991
CA -17.4216 -34.5854 39.7838
CA -19.4106 -25.445 56.1887
CA -28.6145 -4.88248 56.7208
CA 18.1536 -25.1823 52.2308
CA -19.8235 -32.7469 66.3006
CA -12.9909 0.962769 42.8623
CA -16.6363 -1.92461 37.2653
CA 17.1531 15.3142 50.7738
CA -15.6807 -27.6979 38.1411
CA 3.49242 -23.6192 55.421
CA -6.95625 6.40737 69.5611
CA -2.91078 -41.1937 63.6907
CA 8.39356 8.0666 57.5537
CA -25.0552 -26.9259 38.4509
CA -12.8603 -26.225 57.5366
CA 3.40823 -24.3568 50.9424
CA -1.71345 17.7356 56.8602
CA -21.0135 -32.1199 37.3316
CA -2.59756 -39.4718 74.5062
CA -35.4865 -12.08 57.0411
CA 22.469 -27.0162 52.5462
CA -29.9397 -21.7034 49.8125
CA -20.5376 -32.9951 49.8612
CA 3.74574 -28.3759 52.9637
CA -7.79379 -25.4457 49.7495
CA -36.6692 -30.6726 44.3489
CA 3.87043 -12.1738 19.7874
CA 13.208 20.4693 41.2309
CA -17.3122 -26.1516 68.0942
CA 0.0944277 8.09675 49.688
CA -9.85077 -24.8867 64.4933
CA 2.69023 13.2459 44.5601
CA 10.1349 -26.0044 51.2681
CA 4.77287 6.1898 46.6293
CA 0.564753 -5.28324 59.0592
CA -15.4517 4.67834 65.4835
CA -35.0011 -12.323 59.7724
CA -12.9697 -1.6696 31.5349
CA -6.27112 15.9129 22.2378
CA -8.33299 -4.62596 32.5478
CA -18.1519 2.43583 68.4935
CA 13.3636 -20.3882 51.7754
CA -7.20873 -16.5742 63.838
CA -18.9461 0.709505 48.0003
CA -33.0528 -7.37796 35.3584
CA 0.926338 5.97837 51.1312
CA -4.53378 22.4887 28.6784
CA -22.7094 -11.3489 23.8663
CA -35.8627 -26.8235 49.0709
CA -13.8324 -31.6661 67.7123
CA 15.2115 -23.9304 50.1256
CA -31.3957 -10.1956 61.6111
CA -2.02931 -5.23357 20.903
CA -16.0135 -4.66229 58.2277
CA -4.87206 6.3982 49.5644
CA -3.38258 -31.2268 59.4021
CA -12.7903 -19.814 46.2152
CA -2.521 17.6094 31.4747
CA -32.8237 -14.827 56.3217
CA -5.99113 -36.5944 62.8867
CA -14.9133 -5.52606 46.4497
CA 3.38759 0.223418 48.2477
CA -22.2897 -20.9778 45.4892
CA -11.5051 -13.0897 62.2308
CA -7.85238 -26.3882 39.9458
CA -22.6795 -2.35043 52.3163
CA -27.2016 -12.4444 48.9217
CA -29.4815 -8.24909 36.1901
CA 4.65637 14.2726 42.7122
CA -22.803 -22.9686 46.1317
CA -31.8205 -11.8018 35.9868
CA -11.2587 -33.2126 42.1683
CA -19.4711 -24.6274 53.1576
CA -24.4508 -9.40215 57.9537
CA -9.36181 -9.26935 64.6434
CA 22.2163 -16.3748 56.9255
CA -21.7917 -4.89509 42.0806
CA -5.44777 -3.88951 57.2155
CA -2.88214 24.3681 33.856
CA -30.9263 -7.46636 64.1575
CA -16.6956 -19.8508 60.9716
CA -11.6485 26.8312 39.3718
CA 11.0081 -19.0084 51.0929
CA 8.07191 -16.2435 49.6311
CA -20.1768 -31.2443 51.2948
CA -36.7237 -3.68806 41.5201
CA 3.86736 -13.0665 55.0613
CA -1.01577 -44.5255 65.3133
CA -25.6692 -38.2244 49.5756
CA -4.73698 19.6717 54.2447
CA -11.9977 7.01338 47.7081
CA -7.56975 11.8878 22.7951
CA -7.49852 5.60138 63.2968
CA -22.1585 -36.4085 48.6601
CA -8.67333 25.7992 31.8001
CA 8.44035 11.8304 40.5975
CA -43.1602 -15.5316 44.1367
CA -18.2316 5.53377 65.2515
CA -1.52601 0.993891 53.4576
CA 5.08979 -30.3105 50.236
CA -35.6987 -15.656 45.8001
CA -3.78985 -24.3969 41.6798
CA -4.33808 -2.99856 68.6185
CA -25.7134 -12.8491 50.3695
CA -2.68147 -34.2831 60.8542
CA -23.2125 -26.9912 38.7813
CA -12.0289 -7.21705 47.5133
CA -24.6978 -23.3173 50.8817
CA -7.23625 -13.8273 54.5416
CA -15.3303 -27.5667 56.6292
CA 7.52285 3.25378 46.0749
CA -3.6141 3.70363 45.0534
CA -33.2903 -6.68788 41.7273
CA 3.05653 -6.12662 18.5447
CA -26.4393 -18.1237 57.3097
CA -14.1775 -16.5256 44.8801
CA -40.1913 -12.9137 35.0411
CA -11.7619 -2.54324 62.3218
CA -13.2513 16.1516 48.4398
CA -3.50367 -21.4867 43.1756
CA -7.62191 -19.8132 58.0476
CA -15.1291 3.14071 62.3733
