489

CA -23.2083 -14.0373 63.6396
CA -22.1352 4.20427 49.9269
CA -11.1945 -13.3338 56.2971
CA -22.2832 -29.8441 58.0163
CA -8.84912 -19.746 42.3679
CA -1.99043 -16.2445 56.4302
CA -22.0047 -34.4471 51.7623
CA -28.2279 -11.5676 52.257
CA -0.262096 -8.98962 28.0474
CA -1.28784 -5.1485 34.5662
CA -25.3585 -6.41474 56.0682
CA -42.6009 -9.35001 68.8706
CA -26.0428 -27.1885 51.9891
CA -2.58091 -23.6113 53.4702
CA -11.4398 -13.2377 41.7767
CA -11.1765 -7.98842 48.175
CA -17.2388 -22.6115 41.6434
CA -16.9114 -31.9496 48.9805
CA -3.51992 -8.64003 49.7972
CA -20.938 -28.8576 48.6601
CA -37.9602 -28.5673 49.4338
CA 5.93117 -18.6251 57.1141
CA -1.15332 15.4195 36.9401
CA -29.3487 -18.9333 37.4483
CA -10.2815 2.84796 66.8919
CA -5.17384 -16.5599 38.4973
CA -36.1545 -25.9627 51.3765
CA 6.05466 4.70302 57.3555
CA -17.4026 -6.37029 57.0975
CA 0.80518 -16.7003 53.8978
CA -37.3995 -12.7637 55.5084
CA -23.9258 -18.005 51.5804
CA -30.0279 -19.0472 53.1224
CA -17.6136 -9.80502 22.6536
CA -16.0967 -26.5802 68.2574
CA -24.519 -14.7588 41.5616
CA -7.26882 -10.8662 40.346
CA -8.11564 13.6688 37.4455
CA -40.6285 -7.4737 68.1474
CA -7.45673 -20.8206 25.2505
CA -5.28877 0.197947 40.3105
CA 9.29376 -12.7464 61.9362
CA 1.48062 -2.93276 54.8043
CA -27.2217 -34.1624 59.513
CA -5.23174 -17.4667 57.8998
CA -9.20937 -40.7883 62.8984
CA -12.4139 -9.34881 17.995
CA -37.4217 -24.3852 47.3965
CA -24.3588 -29.5224 57.6737
CA -14.1873 -31.4299 56.2624
CA -36.9647 -16.7737 45.6537
CA -8.00061 22.6934 49.096
CA -26.5433 -4.70635 60.5572
CA 5.72228 -9.68802 18.8821
CA -37.0354 -9.62522 51.8875
CA -15.9988 -11.5124 49.898
CA -32.4053 -22.4168 54.3758
CA 20.2978 -22.3911 59.605
CA -11.3721 -9.65722 29.4698
CA 10.3524 -14.3433 61.9012
CA -7.4036 -22.7977 49.9437
CA 6.77809 -9.05656 22.9016
CA -3.11111 -29.4889 44.2252
CA 6.78112 -7.11242 29.7619
CA -42.5994 -34.8121 45.3632
CA -24.0555 -35.9118 51.944
CA -26.5003 -29.2432 65.1739
CA -8.66396 -8.55888 27.8674
CA 1.87852 -0.886009 50.9287
CA 3.36292 -13.1191 56.4429
CA -5.74246 -10.2011 29.7844
CA -25.4934 -12.1697 62.0811
CA -22.22 -29.2666 50.478
CA -2.02718 -7.09346 22.044
CA -37.4065 -7.3996 38.0782
CA -37.4425 -30.6444 51.8092
CA -18.8069 26.8889 40.382
CA -28.4362 -2.95088 54.465
CA -12.2289 -21.1228 66.8721
CA -13.9816 -5.08504 43.2811
CA -7.02806 20.5963 33.4068
CA -41.9042 -13.6041 69.0133
CA -5.48306 27.0447 53.2458
CA -28.0556 4.53269 63.005
CA -22.2033 -4.90985 48.9909
CA -14.651 -28.5101 58.7673
CA -8.13836 -19.186 67.8499
CA -5.5046 -29.3401 45.3273
CA -40.1167 -35.746 52.4762
CA -28.0139 -32.0293 62.0182
CA 1.68206 -5.70599 23.6192
CA -36.8731 -5.82069 65.6848
CA -14.0095 -22.1209 70.5959
CA 5.71597 -3.74798 54.2685
CA 4.60775 -15.5388 62.3824
CA -7.12099 -38.8074 70.8299
CA -7.42763 -36.7354 73.4761
CA -23.0136 -32.5522 48.5139
CA -22.3928 -23.8003 62.8124
CA -10.0054 -35.791 74.4984
CA -28.7787 -0.702638 56.3
CA -8.38339 27.4056 51.14
CA -26.4962 -17.0851 54.3097
CA 7.99119 -26.2736 60.7145
CA -7.73857 -1.86328 56.7011
CA -15.5763 -21.2738 61.0016
CA -35.3925 -10.1727 64.1632
CA -13.9703 -4.48842 57.7348
CA -35.6976 -8.73187 43.8734
CA -12.6773 28.1947 38.1016
CA -5.58225 12.042 26.7609
CA -5.06699 -16.7892 36.2286
CA -13.9789 -35.7307 66.4558
CA 2.23937 -0.736943 67.4347
CA -34.929 -14.7836 48.5783
CA 3.48005 4.21761 44.9651
CA -10.4646 -3.44134 48.1444
CA -21.085 10.2458 65.041
CA -35.4165 -4.13315 59.7457
CA -36.0824 -6.56989 35.4989
CA 14.3257 -26.5447 60.4039
CA -13.0384 -33.4693 55.1128
CA -8.68189 -38.1697 66.7239
CA -15.4871 -8.92516 19.3511
CA -6.2767 -10.5033 36.4104
CA -6.5781 1.17804 54.1541
CA -10.8347 16.0308 40.0334
CA -21.4864 0.302152 59.7462
CA -5.89169 -21.9233 22.3795
CA 3.28137 -4.45579 67.2357
CA -1.56665 9.97827 46.723
CA -9.63066 1.83927 60.7174
CA -9.22277 -15.8818 22.8892
CA -19.8507 -1.49488 53.024
CA -24.4996 -14.9359 54.6385
CA -12.4419 -27.9047 68.0986
CA 17.2133 -24.0234 58.7906
CA -20.4428 -30.431 52.8461
CA 9.62302 -24.8279 61.3224
CA 9.66497 -20.879 57.7513
CA -10.2369 24.6426 38.1986
CA 7.0563 -28.8858 53.0247
CA -8.37553 -4.59927 58.6708
CA -27.6134 -31.0503 58.7357
CA -7.63961 -4.98713 66.305
CA -14.2813 26.0353 47.5174
CA -47.0112 -35.3393 52.7378
CA -0.0125096 -30.3568 56.0766
CA -22.4008 -12.6657 45.9086
CA -25.3286 -19.2454 55.1731
CA -16.211 -2.58916 45.6752
CA -36.7219 -13.1862 58.8025
CA -7.77877 -35.7466 66.7005
CA -16.891 1.2714 61.6644
CA -8.84546 -3.02335 67.4253
CA -15.2094 -25.9718 69.7665
CA -8.32645 -22.3035 25.8978
CA -15.9812 -28.7144 38.5311
CA -19.8975 -30.1585 66.6917
CA -12.4523 -7.47642 34.627
CA -9.62019 -5.68385 67.0354
CA -6.65862 -20.9646 35.2787
CA -2.32774 15.0015 32.8353
CA 4.18376 -14.5573 48.3557
CA -34.1753 -24.6723 56.8745
CA 6.8836 -29.1369 55.485
CA -3.99051 -25.3658 52.3215
CA -3.66758 2.11349 47.2165
CA -8.6217 -35.5267 51.4446
CA -13.9226 -0.16059 56.5711
CA -7.64769 -11.0028 44.9537
CA -36.8384 -29.2831 45.7548
CA -21.9694 -39.6536 53.0663
CA -5.71556 19.646 47.0801
CA -11.2164 -24.1598 43.4325
CA -19.1394 -16.9476 61.4598
CA -3.40171 -14.723 62.3173
CA 7.72555 -3.69161 70.4055
CA -24.7123 -25.2619 45.9166
CA -38.6582 -15.9301 76.5787
CA -37.554 -26.6714 52.4365
CA -19.1427 -28.5813 64.3682
CA -14.9203 10.3535 28.3562
CA -13.5192 1.71326 39.1052
CA -2.58471 -28.9909 54.2202
CA -17.704 -9.72152 48.9793
CA -23.0301 -14.4594 44.4391
CA -11.2825 -35.4836 53.8828
CA -24.0466 -13.5617 53.3899
CA -27.6869 -43.8715 52.834
CA 3.3899 8.18303 46.3557
CA -8.61129 -12.4278 37.1306
CA -10.4925 -33.4243 60.3825
CA -21.5548 -13.8486 64.4065
CA -38.877 -14.1764 57.5849
CA 4.7155 -11.1731 19.182
CA 3.04787 -10.5861 57.5008
CA 0.446075 -9.86779 30.2505
CA -38.5335 -15.0685 73.2896
CA -2.33234 -3.05929 32.6773
CA -21.8008 -16.8041 64.3268
CA -28.6249 -20.7045 59.9673
CA -0.514983 -7.72861 52.2689
CA -27.0075 -12.8555 53.9128
CA 0.398175 5.13272 57.4969
CA -11.0178 -7.18879 53.1985
CA -4.05543 -3.52923 31.5096
CA -41.8157 -38.4119 49.616
CA -2.40448 21.5581 51.5596
CA -27.3058 -40.9056 62.6989
CA -24.1653 -30.4543 69.7704
CA -20.6378 -26.8165 43.6765
CA -7.55184 -8.04676 33.3174
CA -3.95355 -21.4176 36.7228
CA 6.58801 -0.47435 63.0807
CA -31.8954 -25.8113 53.6205
CA -19.9359 -14.5703 43.168
CA -14.4203 14.936 24.4585
CA -8.85102 16.9904 30.1961
CA -2.51058 -8.18017 17.8437
CA -42.2171 -27.3279 50.8574
CA -19.8209 0.983376 62.178
CA -21.8259 -11.084 55.1911
CA 6.29055 7.88668 41.7608
CA -8.56263 -36.6187 46.6718
CA -13.7231 -17.7874 59.911
CA 4.38867 0.813408 57.9808
CA -30.5459 -11.6549 52.9037
CA -23.8883 4.23874 62.1837
CA 4.39847 -10.609 30.7043
CA -15.167 1.09553 59.4918
CA -11.8278 -13.5906 36.7773
CA -4.84078 -35.0362 45.1131
CA -35.0463 -13.7074 45.0049
CA -12.524 -41.6093 52.7905
CA -21.4917 -39.6843 55.3657
CA -26.1212 -18.7097 37.6378
CA -28.1795 -42.5214 51.4097
CA -10.8279 -11.3105 23.2191
CA 8.9257 -25.4809 53.7371
CA -8.72413 -10.6069 46.6777
CA -7.53861 -2.94495 59.5355
CA -10.5285 3.81856 72.1327
CA 8.24954 -0.538045 57.0687
CA -22.5924 -27.5304 56.2027
CA -13.3737 -34.5764 52.4965
CA -6.48128 23.2396 36.0453
CA -28.5117 -17.8491 47.1106
CA -4.91685 -25.401 24.0463
CA -11.3441 -21.1409 45.0289
CA -0.085913 -6.03581 53.2197
CA -26.4684 -31.202 65.337
CA -3.92543 -19.3409 50.251
CA -19.9375 -25.3643 64.747
CA -39.0406 -8.50855 65.1011
CA -40.2673 -26.808 49.7155
CA -4.83487 -22.8698 64.1794
CA 26.0428 -17.1884 59.4422
CA -20.1351 -12.9581 42.281
CA -7.01497 -14.2048 61.7724
CA -25.4189 -17.6145 60.5583
CA -15.9455 -7.52105 48.4181
CA -40.9421 -35.5072 48.6702
CA -18.878 1.63506 47.7082
CA -9.2205 -8.00698 43.7072
CA -23.2186 7.96721 63.0968
CA -37.826 -4.56238 60.8944
CA 2.01676 -7.85672 54.9321
CA -16.3022 -20.6098 42.6826
CA -8.97553 -24.3098 70.7155
CA -6.58809 -7.24163 67.6968
CA -30.1512 -25.7395 50.6807
CA -13.5037 -11.5783 30.5957
CA -6.58234 -36.2677 68.5843
CA -16.2256 4.73239 47.9884
CA -11.1837 -34.9896 65.5912
CA -7.51651 -11.2879 61.3001
CA -26.1882 -13.8855 57.2622
CA -29.7566 -18.2755 59.6316
CA -43.9777 -34.3924 52.278
CA -2.74153 15.4467 42.7857
CA -12.7578 -29.1875 59.3403
CA -28.9593 -6.30764 61.7181
CA -16.3871 -2.60056 42.5713
CA 6.83527 -9.15195 54.4881
CA -2.05592 4.35238 45.5226
CA -2.49528 -7.69269 15.4035
CA -5.6343 2.35443 45.7298
CA -16.4595 6.10505 67.2117
CA -46.1152 -37.4077 49.4069
CA -5.70065 -5.8806 57.7635
CA -39.2246 -11.1813 44.9381
CA -37.2862 -12.0297 64.3024
CA -3.20648 -5.88566 61.3177
CA -10.2066 18.4579 43.1344
CA 25.7226 -18.8219 57.1485
CA -33.056 -22.9867 56.3559
CA -23.8628 -33.1207 61.2848
CA 1.57016 -7.78036 15.5575
CA -15.1032 -32.5239 70.8681
CA -24.4807 9.64059 63.241
CA -9.6157 3.65044 37.4808
CA -16.8229 -6.30948 51.2623
CA -14.093 10.3074 26.2541
CA -24.0026 -30.2112 49.4855
CA -22.2748 -27.2804 69.0714
CA -12.6879 16.9371 28.8204
CA -37.3114 -20.2464 43.7318
CA -17.7211 7.99975 65.8697
CA -36.0128 -35.6738 42.1414
CA -1.67263 10.2607 48.968
CA -12.0527 -6.67385 63.4086
CA 5.83038 -13.7843 57.6851
CA -19.9805 8.61382 67.9099
CA -21.2726 3.35115 64.093
CA -17.123 -26.3022 36.485
CA -41.2353 -31.4012 44.5177
CA 4.30716 6.54898 60.4773
CA -16.8882 -21.7328 59.6981
CA -25.6217 -21.1007 58.0203
CA -8.80745 20.5981 43.3362
CA -9.78248 -13.2293 60.1881
CA -35.1543 -26.3146 49.2062
CA -18.3143 -16.8114 28.5797
CA 6.15813 -11.9653 50.514
CA -27.3775 -28.7261 69.0316
CA 5.74638 -9.40761 61.046
CA 8.72765 -10.7953 26.9261
CA -22.2442 -13.7 52.3008
CA -13.3369 -41.3255 50.8238
CA -25.6487 -25.0714 54.5369
CA -17.4878 -19.3603 55.6396
CA -7.98859 -21.0935 69.2958
CA -20.9195 -20.0982 52.4329
CA -18.9481 -6.18673 56.0319
CA 6.50797 -0.754352 54.8292
CA -6.91473 -25.53 69.5567
CA 9.36747 13.1924 38.3101
CA -21.0106 -36.3333 60.0316
CA -2.60866 -10.3873 15.4285
CA -28.2059 -17.8451 54.8673
CA -21.2348 -18.6882 54.3401
CA 7.16287 -28.652 62.1732
CA -35.7012 -22.9244 53.3455
CA -2.73834 -27.9705 56.4017
CA 21.8947 -20.1931 54.8192
CA -35.435 -19.4559 43.2294
CA -20.9364 -26.8728 61.8639
CA -12.0923 -37.1041 53.5842
CA -27.2082 -16.0649 60.3912
CA -40.8932 -27.5789 45.941
CA 1.2147 3.14319 61.6773
CA -17.9356 -1.44096 43.3637
CA -20.1341 -0.791126 47.5744
CA -45.0243 -24.4163 47.4183
CA -4.18751 1.52322 43.3903
CA -8.70311 -0.0437982 48.501
CA -5.67653 0.920892 64.0905
CA -19.7078 -16.9211 26.8176
CA -4.59599 -32.5424 48.6373
CA -6.71348 14.9879 25.6547
CA -37.5302 -10.9988 34.4354
CA -13.9811 5.47183 46.0887
CA -12.1202 -38.0766 64.3918
CA -1.20341 13.5899 34.4196
CA -5.38278 -7.63892 61.373
CA -16.581 24.6139 48.4488
CA -36.0217 -28.7917 51.872
CA -17.6927 1.38462 58.2845
CA -39.5272 -37.1052 41.822
CA -44.0374 -17.8531 46.1799
CA 1.21366 -5.71996 29.9915
CA -45.0216 -29.1749 40.956
CA -9.65945 -27.5192 42.5163
CA -8.31784 2.89635 62.2458
CA -36.811 -12.1306 45.2605
CA -3.28252 -25.2917 72.6021
CA -30.8409 -14.2086 61.4494
CA -2.15604 -4.9738 31.6574
CA -28.1095 -17.1957 37.4061
CA -38.955 -13.6288 70.5013
CA -11.2111 -14.9729 31.07
CA -10.9519 18.2883 41.02
CA -0.172703 -6.69703 58.8777
CA -10.4793 25.1404 44.4047
CA -17.3929 -14.1603 25.267
CA -9.17947 0.754626 63.7513
CA -11.215 -7.45873 30.0679
CA -7.00938 -41.619 65.7764
CA -0.691817 -11.3068 61.4386
CA -20.2801 -19.7145 60.4151
CA -40.7091 -35.7279 44.9504
CA -39.5016 -6.29878 57.6821
CA -13.0145 -14.4677 20.7092
CA 10.6321 -26.6587 60.4941
CA -23.5262 -13.7607 37.8822
CA 0.0944277 8.09675 49.688
CA -30.1073 -13.3172 59.7209
CA -25.6459 -10.7757 56.8487
CA -3.45254 -1.86273 43.7367
CA -20.4442 -27.2023 54.6531
CA -14.5587 -35.7785 64.5968
CA 10.9161 10.2835 44.3308
CA -22.9497 -37.6437 52.826
CA -45.5421 -32.6784 52.0774
CA 0.0687895 -26.1215 72.524
CA -21.4077 -20.4232 56.4113
CA -13.0592 -25.6496 38.8937
CA -13.5336 -11.4351 26.7734
CA -5.56829 -9.67497 46.8013
CA -31.2001 -20.6261 60.6268
CA -14.7085 25.6995 40.7388
CA 11.8003 -24.9273 56.7986
CA -4.2449 -25.0996 56.621
CA -27.4998 -13.9926 50.4496
CA -4.52139 -23.6338 68.3671
CA -40.1032 -8.47098 39.4146
CA -11.4443 -27.658 60.195
CA -19.409 -7.81021 52.8264
CA -6.82648 -8.89554 37.067
CA -19.4867 -25.2288 43.4038
CA -34.6915 -22.5784 55.5782
CA -11.955 16.3379 22.1365
CA -38.603 -10.3063 40.91
CA -22.3569 -28.163 64.1778
CA -42.073 -20.8502 47.1109
CA -22.4366 -11.362 63.5139
CA -22.0023 -22.7997 66.783
CA -8.4939 -20.1264 47.0503
CA -28.409 -13.5518 62.1268
CA -12.529 -34.5801 69.4228
CA -0.81454 -30.1048 54.4029
CA -40.6355 -14.3714 77.5526
CA -6.48387 -2.28688 66.0405
CA -16.1632 0.702754 68.6272
CA -15.452 -15.4316 40.9481
CA -43.2951 -7.74419 42.6175
CA -9.65364 -16.7871 42.8334
CA -10.9744 -5.86575 43.4989
CA -7.22872 2.39965 42.4612
CA -11.8823 -36.0858 49.5343
CA -15.5495 -4.91363 62.2322
CA -17.472 24.8194 39.276
CA -8.27228 -20.6282 45.2481
CA -6.42522 -32.0019 45.2716
CA -22.2339 -32.1743 64.587
CA -3.28338 10.8969 32.0878
CA -4.75766 -8.61447 30.8149
CA -1.29225 -18.2782 52.8415
CA 3.33132 -13.552 17.9112
CA 4.49585 -11.6722 58.2501
CA -25.0978 -37.6652 63.6999
CA -19.5218 -24.7348 55.122
CA -26.3384 -15.1965 51.6022
CA -3.27647 20.9826 49.4198
CA -25.6692 -38.2244 49.5756
CA -4.35701 -14.8054 50.3194
CA 7.37953 -30.2897 51.5067
CA -2.73813 12.6904 44.3277
CA -27.7124 -18.2842 41.9633
CA -3.35122 15.4649 31.1935
CA -4.10612 -23.1658 49.9571
CA -23.8027 -13.7798 50.1491
CA -5.2655 14.9347 48.234
CA -15.3826 4.65557 65.3572
CA -3.3319 -9.04983 55.5715
CA -15.9464 2.64385 45.2068
CA -18.0552 16.1701 29.3395
CA 0.81644 -16.0473 51.7192
CA -2.24818 -6.13059 26.8419
CA 5.99858 12.7716 40.8513
CA -4.61543 14.5553 34.9724
CA -15.4145 16.7377 31.1876
CA -40.4984 -16.1036 49.2091
CA -23.8619 -34.6425 46.2107
CA -27.6311 -19.0504 53.0347
CA -34.6548 -13.6422 58.4233
CA -14.0193 -17.3299 30.0954
CA 1.27084 -5.15475 62.4132
CA -11.5487 -27.9317 63.076
CA -12.3252 -5.16767 47.2533
CA -5.37619 -18.4793 37.8025
CA -2.46306 -17.2452 51.6844
CA -11.5143 -0.549047 56.8849
CA -5.65617 24.3665 34.2891
CA -9.05929 -12.3063 61.7834
CA -7.92023 -1.7054 42.9045
CA -18.8228 -20.8078 61.5457
CA -6.81922 -8.65135 44.7393
