489

CA -23.2083 -14.0373 63.6396
CA -22.1352 4.20427 49.9269
CA -17.5701 -0.910748 59.6011
CA -14.8972 -24.7965 61.2431
CA -11.292 -16.7985 68.8552
CA -22.8312 -13.8673 28.0262
CA -22.0047 -34.4471 51.7623
CA -36.3718 -32.2573 46.1918
CA -13.9523 -19.9193 66.9749
CA -24.5256 0.850933 50.5036
CA -37.9073 -5.48131 43.258
CA -8.75117 20.3269 45.043
CA -8.4502 -31.485 68.4538
CA 13.8771 -26.7476 53.9881
CA -28.5647 -23.5354 54.7298
CA -32.6081 -6.30983 41.1744
CA -5.46582 -25.8348 54.5188
CA -15.1043 -18.2958 68.5891
CA -29.07 -27.2149 54.9397
CA -5.42174 -30.8814 41.899
CA -17.0828 -28.0802 41.5659
CA -29.6785 -14.1654 50.1813
CA -4.01182 -17.1132 48.0984
CA -18.7017 -20.1175 59.6992
CA -10.2815 2.84796 66.8919
CA -23.1685 -9.74402 66.8108
CA -33.4155 -2.86606 51.0657
CA -16.0345 18.6609 19.7231
CA -18.8456 -12.7622 54.378
CA -25.173 1.75039 54.8212
CA -37.3995 -12.7637 55.5084
CA 11.4443 -27.2634 52.9917
CA -18.3706 -27.6491 64.915
CA -16.1077 13.3876 23.3381
CA -39.9247 -13.4156 48.0277
CA -28.3982 -22.8332 65.3828
CA -14.9142 -7.08084 67.5984
CA -8.11564 13.6688 37.4455
CA -14.2183 -17.2758 65.2997
CA -39.9764 -14.3091 60.4105
CA -5.28877 0.197947 40.3105
CA -36.6695 -35.4773 51.6872
CA 1.48062 -2.93276 54.8043
CA -12.107 -24.2258 52.5962
CA -38.68 -30.716 48.1102
CA 10.0992 -23.4139 51.8564
CA -22.4312 -30.0236 67.5186
CA -2.58789 -37.3356 47.5338
CA -32.8513 -24.1997 52.6953
CA -38.9189 -1.56136 65.0881
CA -21.7635 -13.2429 56.2451
CA -9.36557 -25.5435 43.4598
CA -30.2573 -8.58518 54.3187
CA -14.0621 -13.2858 22.5118
CA -9.35016 -29.2852 70.6407
CA -34.6405 -44.4895 58.1618
CA 25.1381 -25.595 59.2869
CA 4.82439 -13.1474 61.7074
CA -42.1285 -33.2227 45.6595
CA -26.0083 -14.7207 52.8442
CA -11.0499 -19.64 66.4415
CA -34.1696 -2.88236 71.4701
CA -3.11111 -29.4889 44.2252
CA -5.73123 -5.47305 29.5555
CA -22.7771 0.729044 48.0149
CA -12.63 3.3166 36.8662
CA -6.68126 -26.1024 23.9377
CA -6.28994 -20.6782 38.0588
CA -14.8017 21.6067 19.7486
CA -34.6145 -9.54285 39.8731
CA -9.21266 20.3202 42.5447
CA -15.9976 1.06435 55.948
CA -19.5016 -0.110012 58.6254
CA -32.4474 -16.9482 60.9741
CA 2.25275 -31.8025 71.7706
CA 0.251484 -28.6566 79.8666
CA -5.67665 -16.0495 34.169
CA -13.5115 10.9024 19.9896
CA -12.2289 -21.1228 66.8721
CA -11.6833 -32.1222 74.1852
CA 2.07562 -8.08105 63.8832
CA -19.6333 -30.3025 49.7561
CA 0.454946 -33.9539 67.4495
CA -6.7805 -2.55478 56.6246
CA -9.61887 -15.4243 56.2128
CA -22.8251 -22.688 32.6957
CA -5.5153 -16.4682 54.2582
CA -35.941 -11.3536 66.3115
CA 14.6772 -27.5001 58.1154
CA -10.9959 -14.1934 24.5247
CA 1.68206 -5.70599 23.6192
CA -36.8731 -5.82069 65.6848
CA -14.0095 -22.1209 70.5959
CA -33.9075 -11.2778 34.4078
CA -10.9878 14.6809 29.162
CA -36.4593 -6.03402 36.11
CA -33.1114 -0.623857 41.9514
CA -7.80233 -20.5201 40.6289
CA -10.8435 1.31603 37.9945
CA -21.5419 -32.0409 48.6914
CA -36.9741 -8.11677 49.4643
CA -7.28481 -13.8053 43.5274
CA -18.7425 0.309554 40.4047
CA -23.943 -34.3197 46.6436
CA -23.8577 1.5501 60.2461
CA -3.90716 -14.3567 45.7708
CA -8.69599 -23.7895 65.8884
CA -7.5941 -26.1775 68.5607
CA -20.8824 -13.4964 65.697
CA -7.08197 -31.0047 45.5897
CA -27.594 -14.124 50.9976
CA -2.4865 -37.1016 70.9781
CA -32.0394 -28.7596 58.8073
CA -28.0921 -39.5258 50.6683
CA -18.8782 -25.0089 35.152
CA -29.7582 -3.02703 54.9125
CA -10.752 -34.5958 75.4272
CA -19.1697 -23.4055 48.3081
CA -5.28437 -23.9239 53.4657
CA -8.94396 -7.48586 41.7962
CA 14.3257 -26.5447 60.4039
CA -12.8403 8.56694 36.2555
CA -36.2152 -14.2697 68.3216
CA -15.4871 -8.92516 19.3511
CA -23.3461 -11.8306 65.5506
CA -6.2237 -19.658 43.6657
CA -10.8347 16.0308 40.0334
CA -23.7745 -30.9206 49.2082
CA -17.5083 -0.707013 55.3181
CA 3.28137 -4.45579 67.2357
CA -1.56665 9.97827 46.723
CA -10.2505 3.71975 51.6091
CA 3.47953 -22.0118 53.5678
CA -18.2752 -22.9403 41.8345
CA 16.3207 -24.2461 51.2125
CA -23.21 -31.965 56.2477
CA 17.2133 -24.0234 58.7906
CA -5.34822 -27.9622 73.4376
CA -38.5902 -35.5196 50.4975
CA -9.45263 0.245107 51.95
CA -7.65894 -26.9344 43.6754
CA -4.38059 -15.3163 36.5361
CA 16.1074 -22.501 52.0652
CA -37.6617 -0.259603 69.364
CA -14.4123 8.54384 31.7717
CA -19.2238 -34.2179 48.491
CA 11.0032 -25.5103 53.0807
CA -6.58766 -35.7533 45.764
CA -39.3612 -5.70084 64.9116
CA -39.7295 -29.696 43.4446
CA -26.4071 -48.5769 60.1196
CA -12.3208 -13.234 49.767
CA -15.0035 11.3902 22.9511
CA -22.7685 -21.8183 52.3241
CA -12.2596 -23.721 41.5825
CA -26.7121 -36.2396 49.3051
CA -32.3242 -27.1103 50.2961
CA -28.9838 -13.9 43.7346
CA -36.3465 -11.8345 47.383
CA 0.296398 -8.83854 55.9313
CA -1.96648 -19.5848 54.8483
CA -19.2223 -30.3133 42.8701
CA -32.9702 -5.67613 55.2079
CA -19.5418 -0.194113 63.4192
CA -17.4267 14.776 20.4322
CA -2.56436 -37.2127 75.338
CA -21.1219 -22.859 37.795
CA -15.2494 -26.844 58.1236
CA 1.70375 -7.00073 30.9378
CA -7.26742 -15.6848 26.4369
CA 0.701637 24.8625 45.4212
CA -17.9224 -17.4244 49.7961
CA -10.6091 12.5453 30.6677
CA -30.8853 -3.241 38.7457
CA -15.9558 -22.6257 59.0728
CA -21.7085 -13.0303 60.5067
CA -27.7205 -5.25177 56.7891
CA -6.47596 -22.7581 24.1371
CA 4.78127 -14.4967 59.3112
CA -18.4216 -15.118 27.6011
CA -24.67 -28.7875 62.0215
CA -8.75572 9.67255 35.5998
CA -28.5624 -46.2149 54.6221
CA -13.5192 1.71326 39.1052
CA 8.48396 -8.84477 52.231
CA -20.3474 -27.1104 33.6474
CA -30.7227 -9.29916 58.9065
CA -16.0447 -23.1168 61.1836
CA -22.3683 -30.0163 57.307
CA -30.9642 -43.5392 59.2547
CA -12.8109 21.4489 40.9764
CA -20.3474 -30.149 66.8714
CA -16.5327 -22.3792 64.779
CA -34.1892 -29.0525 61.5658
CA -19.4358 -28.4573 66.1946
CA -16.0128 -36.0457 59.788
CA 14.749 -28.3822 59.7137
CA 3.15879 -11.8154 61.9066
CA -38.5335 -15.0685 73.2896
CA -35.6536 0.600973 64.6808
CA -10.98 4.77171 33.2055
CA -18.7055 -30.8366 60.8507
CA -4.49288 -37.8502 70.0695
CA 4.26086 -18.254 61.6452
CA -2.7239 -9.09329 43.0509
CA -15.146 -15.2252 71.7933
CA -4.05543 -3.52923 31.5096
CA -4.40816 -2.79106 36.5278
CA -22.2612 -34.3128 54.909
CA -29.297 -16.3462 58.2826
CA -6.87199 -27.4516 45.4139
CA 6.59749 -25.2788 54.9335
CA -6.88107 -26.2847 52.2148
CA -10.064 7.25795 67.874
CA -4.70828 -36.1636 70.6841
CA -24.059 -26.4584 54.9846
CA -7.8415 2.81564 43.9057
CA -12.6991 -22.2827 60.6966
CA -21.1826 -29.7341 63.4366
CA -10.743 -26.2216 47.1837
CA -7.03178 6.59141 44.7826
CA -42.2309 -6.39556 35.365
CA -40.6278 -10.7202 37.5061
CA -13.1126 -21.6263 39.2418
CA 11.4505 -30.0372 60.43
CA -23.8519 -34.3774 67.5322
CA 4.38867 0.813408 57.9808
CA -4.51721 -9.69748 42.9798
CA -33.8949 -13.4175 50.2563
CA -1.8689 26.1808 47.2957
CA -23.9376 -14.7695 55.2536
CA -19.8794 -21.8711 49.0924
CA -27.9666 -24.2759 66.5784
CA -36.1384 -31.1441 49.9925
CA -22.3398 -15.7863 65.7043
CA -6.24035 0.233271 56.4672
CA -26.1212 -18.7097 37.6378
CA -30.0429 -5.06184 56.6318
CA -10.8279 -11.3105 23.2191
CA -21.6942 -0.838477 63.1926
CA -39.6373 -35.0231 42.0591
CA -33.944 -3.72732 46.388
CA -38.2936 -15.7659 53.4169
CA -13.3173 -20.0175 29.1837
CA -15.3144 -10.8341 55.5999
CA -32.5174 -16.514 44.3375
CA -6.39055 10.3047 45.5849
CA -3.70485 -24.9498 76.2123
CA -4.91685 -25.401 24.0463
CA -30.0585 -28.6321 60.9762
CA 3.96675 -1.87715 61.046
CA -13.5946 -21.3637 53.5148
CA -18.29 21.7997 17.0123
CA -23.3982 -27.9861 73.5119
CA -2.79498 -2.02328 31.0641
CA -14.407 0.316865 67.576
CA -4.64201 2.75327 43.4443
CA -25.3135 -30.256 55.6345
CA -8.22452 14.6589 24.9629
CA -13.2078 2.01984 70.0181
CA -40.1177 -3.59223 66.0324
CA 22.3075 -24.6526 58.9546
CA 1.01305 -27.5325 81.7414
CA -16.281 -17.3201 72.7852
CA 0.850033 -17.0789 61.8723
CA -16.7289 -19.053 27.3209
CA -36.2883 -28.1655 45.0083
CA -32.8071 -13.4148 45.5646
CA -7.94754 -24.1627 54.0633
CA -12.6718 -31.7955 76.3615
CA -24.6734 -23.0829 75.3633
CA -9.99856 -28.9736 56.9331
CA -7.09777 -22.9144 39.2347
CA 0.162358 -4.95729 30.7706
CA -7.63938 -5.2547 45.1742
CA -41.6869 -17.8265 43.1482
CA -11.7078 -7.87839 63.1158
CA 4.67778 -11.0809 65.6438
CA -12.1127 -16.6172 53.1407
CA -8.90237 -17.5239 69.5693
CA -28.2357 -42.6004 54.956
CA -12.7578 -29.1875 59.3403
CA -19.0153 -19.2537 46.5619
CA -13.6779 -6.47269 57.3496
CA 2.90256 -10.5014 59.9044
CA -7.39203 -4.99401 59.1912
CA -42.1935 -13.3636 44.033
CA -33.5331 -0.584676 71.3486
CA -6.44944 -18.7842 38.0406
CA -7.17164 8.03626 35.5581
CA -19.006 -1.80741 50.0872
CA -39.2246 -11.1813 44.9381
CA -37.2862 -12.0297 64.3024
CA -16.064 -24.3879 63.1684
CA -10.2066 18.4579 43.1344
CA -40.8806 -6.19606 37.0543
CA -18.5716 -31.8549 52.1895
CA 2.70386 -5.78419 62.7866
CA -15.0953 -16.7889 53.2785
CA -16.1711 -18.225 66.7898
CA -11.7605 -4.80396 66.2955
CA -21.254 -34.0198 59.1832
CA -0.124015 -16.728 63.7859
CA -14.6894 -22.5381 63.0576
CA -24.9358 -32.6608 59.9408
CA -45.82 -33.6065 46.4042
CA 3.53811 -12.4441 55.9743
CA -3.22134 -8.86515 62.9818
CA -12.4556 -3.2253 64.1514
CA -6.67775 19.2406 18.6339
CA -24.2747 -2.07654 64.7753
CA 1.0589 10.6609 46.079
CA -20.9102 -17.4464 61.9355
CA -4.81636 -2.89998 62.407
CA -19.9512 -13.886 55.6512
CA -7.18784 15.0835 28.6662
CA -33.5982 -31.7973 46.3717
CA -14.2258 -27.898 59.5303
CA -5.11115 -14.9743 55.6788
CA -12.525 14.5098 27.8153
CA -36.5042 -38.7587 50.0895
CA -29.7842 -25.0175 64.9018
CA -5.75237 -23.4267 71.062
CA -8.09522 -22.9564 25.0156
CA -10.3251 1.69407 46.3977
CA -21.1558 -22.8692 60.4309
CA -17.1973 -3.04671 42.5898
CA -20.8914 -5.53176 53.64
CA -24.3419 -17.8712 52.7053
CA 5.08507 -9.66491 55.2122
CA -8.54139 -2.53396 70.5746
CA -11.6795 4.34604 35.016
CA -7.98859 -21.0935 69.2958
CA -7.19842 -9.41295 47.4726
CA -30.4754 -5.15064 39.623
CA -0.0593466 -24.5496 52.6109
CA -24.267 -42.0386 53.2299
CA -7.68575 -17.8398 40.0721
CA -43.3441 -15.3986 40.5698
CA -40.8202 -15.113 54.8018
CA -48.8964 -19.9292 46.2032
CA -10.9079 16.4967 30.9539
CA -13.1423 -30.5485 46.1617
CA -14.5149 0.812786 53.1683
CA -20.1357 -36.1461 69.419
CA 21.3932 -28.1151 60.2784
CA -7.74995 -18.4007 57.2282
CA -0.482566 -22.7872 49.8424
CA -15.0603 -3.5092 52.6856
CA -13.2107 5.25165 41.6922
CA -40.8932 -27.5789 45.941
CA -22.1343 -17.7652 65.3877
CA -17.9356 -1.44096 43.3637
CA -20.4934 -9.53469 64.7915
CA -45.0243 -24.4163 47.4183
CA -40.3177 -12.9045 45.9655
CA -19.9639 18.4878 18.9783
CA -15.2632 13.3704 28.5473
CA -19.7078 -16.9211 26.8176
CA -18.3998 20.0893 20.6345
CA -5.57297 -18.1054 70.3659
CA -39.1019 -3.53895 68.2469
CA -23.8699 -24.2485 58.4273
CA -17.5734 2.97405 42.4423
CA -34.9653 -7.9719 40.9088
CA -3.89515 -17.6333 56.4491
CA -42.6652 -32.0799 42.2119
CA 9.12548 -9.29645 60.6902
CA -11.8654 18.1471 19.2983
CA -38.6711 -15.4847 43.7552
CA -7.04314 19.2721 48.5012
CA -24.9774 3.88075 56.6627
CA -13.39 -34.5798 57.5367
CA -5.35355 -19.8912 71.7942
CA 16.335 -19.27 58.5536
CA -17.233 -21.8221 47.8301
CA -3.28252 -25.2917 72.6021
CA -12.6352 -3.91579 61.0857
CA -16.3804 -20.2131 49.2246
CA 0.113356 -26.3012 42.6359
CA -18.9781 -27.5604 62.0279
CA -27.9277 -17.5134 39.8697
CA -19.2139 -2.65392 52.0233
CA -11.5397 0.840182 35.4915
CA -11.4614 0.184562 50.0907
CA -39.494 -36.6276 47.2217
CA -42.4379 -25.2994 49.1781
CA -8.5783 -29.4925 47.4145
CA -8.52422 -0.441487 63.124
CA -25.1347 -30.0601 47.6955
CA -15.9525 -26.896 70.5847
CA 0.348358 -28.4082 73.3324
CA 2.05225 -26.3973 78.4534
CA -38.6641 -9.10478 51.2896
CA -25.6166 2.59082 51.7879
CA -5.48639 -12.4252 47.0651
CA -16.809 -25.5771 66.3043
CA -27.7586 -16.9347 57.4438
CA -25.6459 -10.7757 56.8487
CA -14.0686 -14.3073 53.0392
CA -27.0633 -21.4421 55.2557
CA -21.2936 -28.3571 40.6554
CA -16.439 -24.4926 59.8482
CA -35.9374 -13.8567 50.6781
CA 0.912299 -28.7299 78.1249
CA -8.32365 -17.77 29.6827
CA -47.0635 -24.9435 48.1453
CA -21.8655 -37.9841 61.5959
CA -9.35945 -19.2272 59.0109
CA 8.04907 -26.0623 67.1715
CA 1.85758 -9.21455 19.5235
CA -14.7085 25.6995 40.7388
CA -3.92315 -22.252 62.0331
CA -30.7588 -24.1043 54.3379
CA -13.0383 -1.16726 42.8547
CA -13.627 -21.3006 51.2385
CA -40.1032 -8.47098 39.4146
CA 0.0105308 -34.8411 71.8953
CA -21.15 1.32935 62.9903
CA 5.66375 -21.4595 54.2498
CA 0.270481 -11.0593 24.388
CA -23.6396 -29.0867 46.1633
CA -18.2523 -26.9429 73.0133
CA -7.51014 -6.01496 30.1238
CA -8.63366 21.1469 18.3446
CA -42.073 -20.8502 47.1109
CA -28.1085 -19.1125 42.4845
CA 6.69248 -11.8836 60.5813
CA -4.35135 -18.4359 65.9304
CA -9.07833 -32.988 72.3353
CA -0.929369 -8.47206 19.5072
CA -32.1712 -13.5405 47.495
CA -2.13348 -5.46242 54.8179
CA -6.48387 -2.28688 66.0405
CA -0.86919 -22.1995 47.1231
CA -13.2654 4.9986 54.2623
CA -10.1326 -17.1848 40.7327
CA -18.6429 -16.1055 51.8248
CA -3.52904 -21.1867 52.7807
CA -0.857028 -14.0937 53.7583
CA -3.64549 -9.86373 64.9973
CA -7.56579 -36.5767 49.0809
CA -31.1603 -22.556 65.0493
CA -38.7468 -10.4427 49.8098
CA -20.1207 -7.73952 50.2859
CA -15.842 -29.5455 71.9442
CA -20.0522 -17.778 48.4877
CA -21.3498 -21.3101 36.6203
CA -7.35796 -28.0822 25.2352
CA -29.5936 -42.1138 57.3583
CA 0.653015 12.5959 50.2158
CA -25.0978 -37.6652 63.6999
CA -19.5218 -24.7348 55.122
CA -7.79819 3.75717 53.217
CA -3.27647 20.9826 49.4198
CA -27.5397 -41.6029 53.5518
CA 1.18094 -22.9782 45.6234
CA -13.9412 6.32294 39.0497
CA -32.585 -33.3078 58.6318
CA -25.7065 -41.0186 53.7641
CA -17.6229 -18.0858 60.5047
CA 2.10066 10.621 51.0522
CA 6.40331 -29.6876 59.8089
CA 3.84208 1.74929 61.59
CA 0.936861 -19.4057 63.0054
CA -13.3123 4.26532 63.9931
CA -36.7416 -10.3296 49.6911
CA -4.86184 -9.03106 46.289
CA 0.8421 -2.13994 21.5652
CA -2.24818 -6.13059 26.8419
CA -4.3462 -21.7444 48.5587
CA -4.61543 14.5553 34.9724
CA -22.5934 -34.2604 63.4328
CA -4.16475 -15.8963 70.7382
CA -27.4016 -47.4532 57.7579
CA -29.8081 -30.3423 60.3226
CA -3.04031 -15.5744 42.9079
CA -19.4362 -25.1656 44.614
CA -8.66362 6.09428 35.0522
CA -33.304 -27.8189 52.2054
CA -20.9533 -28.9965 44.4184
CA -11.1312 -19.4444 26.849
CA -0.826946 14.8407 45.6051
CA -38.5618 -6.06011 49.8616
CA -5.5412 -27.3862 47.1775
CA -27.2299 -12.7026 58.3282
CA 8.11217 -25.5097 62.9325
CA 4.26112 -19.7657 52.1152
CA -29.8682 -9.67718 56.0454
