489

CA 9.08499 -23.553 64.6067
CA 9.20513 -18.0767 77.0784
CA 6.71329 -15.5602 34.6563
CA -2.64703 -27.7459 37.5123
CA 8.29174 -25.6171 40.2814
CA 0.483002 -14.8695 33.8221
CA 5.53289 17.0563 45.356
CA -17.8397 -34.2705 42.3547
CA -13.008 -16.4524 43.3642
CA -10.1203 -35.8023 57.5598
CA -9.33297 14.0055 69.8067
CA -18.874 -27.0829 25.3301
CA 21.0182 18.3713 53.6071
CA -3.10934 -34.1233 62.9768
CA 5.44729 -30.1171 43.308
CA 6.36503 -18.5329 29.5947
CA 27.5874 4.63182 55.4366
CA 18.4946 5.64559 27.115
CA 7.03122 -26.9026 41.6971
CA -14.5125 -32.3455 39.4342
CA -15.678 9.514 41.8677
CA -13.8118 18.0665 77.9577
CA -1.10096 -33.569 63.6963
CA -14.3862 -23.5733 26.2925
CA -3.40362 -26.1296 67.9707
CA -10.5801 -6.78812 32.0925
CA 10.4539 26.7722 44.1717
CA -18.7716 -12.9222 17.2492
CA -4.00481 -7.10391 24.4458
CA -8.94195 -28.0418 45.4997
CA -10.5346 -31.6628 52.2883
CA -22.3489 -15.4334 38.9343
CA -10.6055 -8.66128 22.6584
CA -16.4621 -4.16239 33.7829
CA -9.61171 -20.9551 24.4296
CA -14.6557 -32.7414 44.2306
CA -1.55202 -20.5653 27.8686
CA -9.87104 -30.9888 57.0585
CA 10.0003 14.0351 34.039
CA -21.8143 -29.0822 43.5531
CA -15.3014 -22.6907 29.3556
CA 27.244 12.2788 84.9951
CA 31.219 12.8668 53.0905
CA 0.916687 -25.2865 37.6337
CA -20.8071 5.10542 46.9791
CA 6.30824 -19.3576 73.1589
CA -15.1751 -23.7855 36.3331
CA 2.61991 9.07053 58.7609
CA -10.171 -2.84093 23.1414
CA 12.5666 -11.4562 74.5359
CA -8.65504 -12.979 23.2812
CA -31.8939 15.3265 39.7732
CA -11.9368 -15.4546 17.7033
CA -10.9525 -5.80111 20.2373
CA -10.2923 -29.1674 27.3261
CA 19.1234 27.4603 48.3816
CA -13.7863 -19.007 54.146
CA 26.0567 -20.4609 32.6588
CA 3.78616 17.528 63.4163
CA -19.8112 0.738645 29.3918
CA -13.3099 -27.7943 47.7067
CA -13.8795 -4.83422 20.3729
CA 2.55084 -25.1882 36.4643
CA -0.708379 -21.217 40.2172
CA -21.6317 1.6814 29.9185
CA -8.94418 -38.8729 45.121
CA -6.47222 -24.7009 59.547
CA -17.3712 -7.20664 42.6056
CA -22.341 4.71432 45.1206
CA -20.6668 -12.2006 14.5914
CA -1.25586 10.1749 46.678
CA 8.59973 10.5583 74.7051
CA -24.2371 -11.9561 46.323
CA -18.1535 3.8332 48.6282
CA 8.60507 -16.1273 27.3891
CA 1.64537 -21.1254 37.7274
CA -16.821 -5.56748 30.9761
CA 23.2807 13.0794 85.6519
CA -4.54392 10.4303 66.2072
CA -10.4665 -22.5092 21.6254
CA -6.99447 5.72995 68.4298
CA -5.38454 -16.331 24.1999
CA -17.7197 -19.2875 43.8839
CA -3.22349 12.8528 82.427
CA 1.64715 -22.8022 39.1712
CA -3.03407 -21.6905 31.6087
CA -6.40859 -21.5345 63.8741
CA 12.7963 0.648874 50.4857
CA 4.21518 10.5264 34.4128
CA -11.6114 -17.9937 55.753
CA -17.0952 -19.5545 52.6237
CA -2.28622 -0.900828 62.7263
CA -3.62214 12.8226 48.6394
CA 17.0754 3.27429 26.0757
CA 1.62456 -29.9952 42.0366
CA -18.0367 5.67684 52.7426
CA 27.3383 -20.43 39.2067
CA -2.93074 -15.4243 37.4695
CA -17.2443 -24.5173 33.5395
CA -6.15537 17.0951 71.2876
CA -26.9785 -11.6925 45.3624
CA -11.9056 -42.7792 62.0404
CA -0.365325 -43.3095 58.5483
CA -1.8899 -22.7705 66.9579
CA -16.0657 2.05854 25.3972
CA -3.19457 -6.26724 15.4094
CA -8.29135 13.4989 46.6788
CA 1.74719 -33.5793 61.5186
CA 6.93761 0.960549 66.4582
CA -10.053 -29.8374 34.865
CA -28.1549 -33.2888 53.3921
CA -14.6216 -7.58645 32.6226
CA 2.15394 -25.3852 39.0061
CA -12.261 13.8522 84.2337
CA -24.0242 -17.422 55.3357
CA -1.92294 13.2682 83.6303
CA -6.33954 -11.1425 16.0529
CA 2.89943 9.69739 72.8869
CA 16.8657 4.62485 27.5209
CA -20.966 -30.8447 22.8211
CA -20.356 -9.49024 45.6565
CA -15.2049 -16.4518 53.5975
CA -12.9287 16.875 80.6752
CA -16.3755 -36.2114 47.5187
CA 5.94466 -16.3454 69.0975
CA 27.0765 15.084 46.0602
CA 17.2432 -0.883724 8.41793
CA -9.62103 -16.785 18.3944
CA -5.45347 -5.22332 24.0218
CA -11.0982 -14.5441 19.724
CA -11.1086 15.5274 66.9612
CA -16.0826 -0.290094 46.8926
CA 12.6569 -23.603 62.4853
CA -10.7911 -34.6236 55.0695
CA 34.3682 11.8544 53.6466
CA -13.2077 3.60183 38.2125
CA -17.6163 4.36175 57.6711
CA -6.92221 -19.9466 58.8699
CA -23.3032 -5.03501 29.7287
CA -2.46194 -21.8516 65.0174
CA 24.5921 -26.0658 34.3488
CA -7.06857 -29.6959 63.5597
CA 4.23367 -3.15932 23.1754
CA -24.9813 -7.90513 30.6273
CA -4.23882 -3.41214 16.5363
CA 36.3925 18.4665 53.4613
CA -4.54091 -20.5039 30.0803
CA -12.0989 13.6497 42.4785
CA -19.9195 1.41848 24.437
CA -4.32198 -9.69511 30.1739
CA 14.6925 22.2572 44.7623
CA 3.53635 17.2517 82.4551
CA 1.79373 9.6379 40.6275
CA 4.62493 -17.5927 35.1509
CA -18.1228 -19.8409 61.2948
CA -4.81675 -18.5789 30.0128
CA -21.0915 2.02682 44.0069
CA 1.82372 -24.1325 40.5395
CA -11.3872 15.3406 42.6906
CA -14.4381 -31.5855 34.1963
CA -11.0249 -30.0821 43.2992
CA 12.5911 -1.96225 70.6706
CA -5.75608 -29.6055 51.9862
CA 4.45055 -0.513333 67.4964
CA -8.09195 -27.1144 25.9543
CA -20.5253 2.07167 55.0094
CA -0.159947 6.7414 73.9254
CA 2.14768 -6.20642 63.7881
CA -5.37192 -18.5226 28.1478
CA 1.24884 -36.8299 69.1803
CA -13.4199 -0.230456 47.5194
CA -9.61953 -42.1032 64.0591
CA -10.9395 17.0279 40.8354
CA -1.18987 -35.1821 73.3351
CA -11.4912 -20.2705 26.2989
CA -16.6653 3.45723 44.7232
CA -28.7511 -12.7792 59.4622
CA -16.4055 -20.1074 49.2858
CA -12.4858 5.65765 48.171
CA -12.2792 -30.4617 55.2318
CA -4.07869 -15.46 59.4183
CA -18.9274 8.94992 38.2361
CA 3.70389 15.9419 26.9867
CA 6.77623 14.3851 37.8343
CA 12.3872 28.1933 42.6771
CA 12.2107 2.32384 27.7498
CA -5.97787 -16.8992 29.7198
CA 11.3291 -11.3519 77.709
CA -6.52521 14.684 72.7655
CA 10.3002 37.6941 52.9595
CA -15.0226 -2.41753 50.0616
CA -18.6029 -16.5599 37.2945
CA -5.95509 -5.44113 28.8735
CA 26.3502 5.26165 23.0657
CA -9.15903 -29.0129 50.5192
CA -12.2567 -21.982 32.3585
CA 31.9231 14.4209 88.4695
CA -14.9491 5.48146 28.6003
CA -18.5185 -7.73361 45.059
CA 17.6539 27.0339 45.9905
CA 6.00792 -13.7302 33.8662
CA -13.2703 -23.1493 35.7497
CA 23.6302 -18.9004 38.8306
CA 41.967 -13.5958 33.0855
CA -29.638 -9.21997 24.8347
CA 24.0619 -11.771 37.6624
CA -8.05319 -12.1746 21.2019
CA -8.91054 -28.43 38.9088
CA 9.48099 8.20603 75.2118
CA -7.74764 -0.948456 52.0351
CA 6.77105 0.448376 25.0577
CA -0.143504 -26.2512 41.131
CA -7.9181 -5.65955 22.0863
CA 8.04231 -25.5929 42.9758
CA -1.20392 -22.8419 63.4307
CA 28.8916 6.11333 52.8432
CA 6.16211 -26.2517 43.4852
CA -0.679554 -25.5421 63.8446
CA 25.4153 11.5181 85.1007
CA -10.0081 8.58542 48.515
CA 11.366 38.7625 51.6769
CA 34.607 16.1955 52.1173
CA -13.6805 -1.84233 57.1533
CA -0.0096651 -23.5689 30.66
CA 34.0852 11.1278 42.6657
CA -13.1232 -13.1655 20.7506
CA 9.14814 -2.6714 69.7859
CA -13.9238 -12.3825 17.2396
CA 9.02448 -19.0028 75.3032
CA -23.4549 -33.0684 44.3954
CA -2.47658 -17.1246 12.4652
CA 14.7655 20.9294 46.2106
CA 3.51107 3.59903 66.0041
CA 5.19829 14.6872 36.73
CA 15.1805 11.9857 34.7215
CA 2.18516 -28.9563 44.5299
CA -30.4056 -23.022 50.5032
CA 16.3289 7.86556 25.1017
CA 6.4033 -28.7274 40.8879
CA 1.45659 15.791 63.6281
CA -6.50257 -3.49237 23.5399
CA -19.6208 6.7654 34.8861
CA -3.18208 7.41827 28.1258
CA 4.06772 8.85104 31.0049
CA -15.9553 -5.39021 32.5504
CA -7.07252 -9.48798 22.8012
CA -5.11832 -25.0589 33.7165
CA -11.0641 -19.0131 63.4364
CA -13.6048 -25.4187 35.0914
CA 7.20789 -18.1126 61.029
CA -4.19999 -5.57207 27.2988
CA -17.3861 -0.0813207 57.9851
CA 1.63348 -22.7419 31.9783
CA -8.11471 -20.5864 28.4313
CA 18.4021 9.24886 18.9776
CA 6.75356 -5.3183 70.204
CA -3.79301 -0.13295 63.8349
CA -16.4739 2.96305 48.7218
CA -12.9763 -8.84359 21.5452
CA -7.6621 9.63265 66.9872
CA -8.97924 -17.5086 41.047
CA 34.2792 11.5921 51.4682
CA -3.19759 -9.804 12.3
CA -6.19656 8.308 66.2704
CA -12.5706 9.46287 47.3755
CA 21.0417 20.4637 52.262
CA -9.70482 -14.2539 31.1568
CA 4.01487 -17.8831 32.5239
CA 6.65402 17.1786 39.8054
CA 14.4793 25.4614 44.8042
CA 5.00324 16.783 34.5842
CA -3.19825 -4.34211 30.4461
CA -15.0901 5.48513 46.4274
CA 6.26805 19.1621 29.8036
CA -3.9278 14.1207 43.5008
CA 1.57574 15.8388 82.0771
CA -11.2272 0.570882 50.2996
CA -25.2029 -29.3155 46.7781
CA -22.6851 -17.4795 42.5717
CA -2.91103 -12.6296 16.1946
CA -14.8909 -9.13808 43.5821
CA -14.2586 -20.6897 37.7147
CA -7.85916 -33.239 59.0853
CA -4.88729 -21.2958 61.4005
CA -4.4484 7.92564 68.0412
CA 2.49459 -1.56733 23.4051
CA 35.4647 13.8049 54.1415
CA -11.0611 -27.3724 40.252
CA 2.69768 -38.0501 56.4946
CA 3.49979 11.4062 74.4421
CA 1.43064 -37.5765 66.8403
CA -2.40756 -37.2491 62.3135
CA -9.86779 -19.314 17.0167
CA -9.33424 -18.6739 22.7997
CA -8.26204 -36.9559 67.0339
CA -14.316 5.38072 37.5786
CA 0.588181 9.38235 70.6614
CA 7.32321 -30.3875 40.1328
CA -13.5247 8.89098 49.0674
CA -4.25379 -23.6843 34.921
CA -4.39999 9.1796 28.5924
CA -3.39104 -29.0051 53.5451
CA -24.067 -1.3721 34.0151
CA -13.2921 -19.7398 39.7286
CA -15.8166 7.54766 46.4267
CA 11.9355 -25.9999 67.8578
CA -11.4769 -20.876 29.8794
CA -12.1886 -31.6407 42.3352
CA -6.12266 -6.8819 16.2735
CA -15.8904 -21.5746 31.6416
CA 10.5543 -16.8016 74.8653
CA -8.01477 -29.3988 52.4712
CA 3.98268 -25.7831 33.0003
CA -25.375 -29.9162 45.0716
CA 33.5139 9.2538 52.5005
CA 30.0621 8.43566 56.3378
CA 2.41728 -11.9548 74.5743
CA 19.6101 12.6787 32.9221
CA 10.8675 2.26005 23.9663
CA -10.2069 -6.92853 18.3476
CA -19.0484 -20.5273 48.7164
CA 15.7979 13.7616 33.4588
CA -1.7793 15.2618 75.0898
CA -15.369 -30.1637 39.3668
CA -19.475 7.80819 36.6299
CA -34.635 -5.34376 65.7809
CA -12.6319 -12.0042 23.8267
CA -11.6124 3.71954 47.5113
CA -2.33594 -24.0408 36.5366
CA -12.7626 -22.5799 27.0834
CA 7.20597 30.6751 47.6176
CA 3.08674 15.2358 84.2501
CA -15.1466 -16.147 41.0949
CA -14.179 -15.5691 13.5044
CA 21.5166 -3.97383 10.2562
CA 25.3151 -19.4423 41.1282
CA -13.0919 -23.6792 52.7163
CA -15.2139 -17.5752 55.52
CA -19.4629 -6.35507 42.7694
CA -6.89604 -3.18047 46.2352
CA 12.8231 6.30875 28.8794
CA 7.2423 29.5982 43.5826
CA 13.2899 9.34927 70.3933
CA -9.51741 -43.4157 60.0807
CA -2.76627 9.48178 42.9015
CA 34.1159 8.31126 44.6278
CA -0.125871 10.1502 58.2231
CA -7.49824 -31.5506 54.8581
CA -20.9424 -20.3398 54.5465
CA -7.873 -18.4509 62.3311
CA 15.1048 5.19953 24.8041
CA 6.289 -19.4408 81.106
CA -20.7963 -17.8064 20.3184
CA -10.2575 -33.1063 63.4789
CA 9.40461 -0.0459408 68.2028
CA 5.45478 -12.743 32.4324
CA -12.295 -1.07456 22.4427
CA -19.3418 -17.2357 42.3783
CA 15.0365 -26.6468 64.678
CA 30.1467 -14.8353 65.017
CA 28.3119 14.1358 86.9042
CA 20.4071 9.01563 21.7313
CA 16.0083 1.34063 53.2765
CA 41.8235 -15.1868 34.5272
CA 5.7578 28.095 43.8448
CA -9.31065 -9.71394 19.841
CA 25.3886 -19.9588 34.7636
CA -7.53306 -35.3647 57.3033
CA -8.73064 -26.417 44.1539
CA -2.24632 -3.57982 22.8187
CA -8.89158 -7.19561 20.1914
CA -10.2784 -29.4761 47.5325
CA -14.2484 5.5962 55.4613
CA 18.8913 22.9328 49.4625
CA 5.44962 11.9736 37.2296
CA -26.7015 -14.802 60.5913
CA -21.342 2.28861 36.8902
CA -20.1466 -12.2826 54.3153
CA -14.8941 -15.2824 43.6165
CA 24.6563 8.17705 21.4824
CA -17.2273 -21.0302 56.6565
CA -3.8954 -8.56848 25.6089
CA 3.16955 0.36761 69.8786
CA -14.8536 10.0719 44.655
CA 7.73895 -11.427 75.6747
CA 22.0304 -22.5534 39.0991
CA 7.5871 17.8254 29.6509
CA 17.2277 -11.3153 30.8056
CA 2.76338 14.553 79.4143
CA 7.25239 -18.1412 35.6312
CA -23.4554 -33.2657 55.3461
CA -12.3843 8.05179 52.4891
CA -17.6448 8.29641 34.4267
CA 4.94004 -9.18032 32.1062
CA -18.1761 5.24255 47.1484
CA 5.02379 13.0215 74.366
CA -6.37034 -15.034 17.7091
CA -1.0641 -6.42806 22.918
CA 12.6736 13.3622 68.5623
CA -8.86011 -7.70494 24.5733
CA -27.7627 -25.4836 53.2964
CA -21.0773 2.81505 33.0875
CA -10.0961 -25.9857 23.2644
CA 0.803307 0.436795 25.4302
CA 7.54705 17.9023 37.745
CA -8.53596 -21.3509 21.2202
CA 28.1198 -19.1483 37.635
CA 8.38487 -20.1217 73.4438
CA -0.271156 -31.0955 62.3161
CA 1.18025 -36.2039 57.6422
CA 1.54195 -17.075 69.6844
CA -7.90853 -16.8628 22.6619
CA 24.2988 6.23023 23.8195
CA 33.6021 11.8899 38.5848
CA -2.74948 -32.3878 61.7383
CA -8.06992 -33.4969 63.987
CA -3.83578 -5.10563 22.6499
CA -15.6759 -17.8108 32.5244
CA -5.38139 18.0872 53.6124
CA 27.4495 18.7539 55.937
CA -24.8654 -12.2064 42.739
CA -12.433 -30.2782 37.6065
CA -13.4139 -29.0722 40.1409
CA 11.767 15.2534 32.9447
CA -9.39884 4.67625 68.9262
CA -8.51198 -3.03496 20.1476
CA -20.3965 5.40493 57.4935
CA 32.0437 6.29623 40.7453
CA -4.66081 -14.0323 12.9966
CA 1.74892 -32.9987 40.369
CA 2.74793 24.4433 33.9549
CA -12.9998 -20.9742 28.2906
CA -19.8729 -31.6315 54.4315
CA -27.7885 -23.5696 48.7739
CA 9.67492 -2.37652 27.4872
CA -22.2109 4.74432 59.1133
CA -19.527 -33.6433 46.8358
CA 11.9402 27.1328 48.5993
CA 12.4734 8.69095 29.1934
CA -5.38186 -8.13895 20.533
CA -18.0212 -0.530091 27.8314
CA 20.9671 0.377238 8.93535
CA -8.91175 -28.3412 54.02
CA -19.2436 -11.1829 16.8317
CA 5.93178 2.02331 68.2747
CA -26.1349 -8.32481 24.8422
CA -16.3378 0.501553 55.8638
CA -2.96234 1.01855 68.6815
CA -15.4586 5.7504 34.3635
CA -4.69455 -21.1505 28.2979
CA -12.5079 10.8177 54.649
CA 0.536804 -22.5457 36.2313
CA -10.6189 -2.60224 45.461
CA 1.03843 -40.3975 58.9611
CA -17.6464 6.19151 44.3942
CA -5.57144 -6.12239 20.8604
CA -13.8636 -10.3856 20.5082
CA -18.5766 -21.9373 54.0349
CA 14.9571 -26.6598 67.1264
CA -0.557133 2.84703 24.7898
CA -3.36682 20.0261 51.8821
CA -18.6381 -7.65815 38.6388
CA -16.717 4.71375 54.4418
CA -8.15321 -1.08997 49.8014
CA -16.2308 -8.37702 18.1704
CA -18.5462 -35.2056 49.0494
CA -11.3876 1.93122 53.7863
CA 17.5513 12.2568 32.1509
CA 2.46912 17.5419 48.5719
CA 0.444008 16.7719 65.1703
CA -20.8688 -0.556037 25.3911
CA 33.1859 8.71285 39.0095
CA -3.08691 -9.96011 22.0804
CA -25.6351 -35.5715 46.8692
CA -12.2776 -34.935 38.4733
CA -19.3569 -20.682 44.0265
CA -3.67219 15.8815 85.9561
CA 1.01664 -33.4085 66.2487
CA 4.57432 19.4003 58.8024
CA -19.2269 -31.3557 18.7515
CA -15.3113 -17.6225 23.7977
CA 22.6438 -20.5506 35.4707
CA 5.4277 -0.884692 73.433
CA -18.2221 -0.201644 29.9082
CA 8.66289 3.71644 27.4914
CA -5.68568 -21.1189 32.6797
CA -7.57089 -30.0739 59.876
CA -25.3895 -5.14105 60.0992
CA 15.9082 19.2452 57.6622
