489

CA -6.49119 -28.3194 73.4014
CA -9.05316 -1.73602 57.0152
CA -9.50153 -13.5178 52.9846
CA -39.0589 -13.2037 53.3356
CA -11.3976 -20.2053 31.1327
CA -8.47879 -29.3942 71.4648
CA -30.8727 -10.4032 45.2266
CA -19.1497 -20.9355 70.6221
CA -35.0995 -29.6386 64.622
CA -24.5256 0.850933 50.5036
CA -15.0118 -11.6951 19.5518
CA -20.1221 -3.07172 69.4077
CA -25.7839 3.60333 49.3651
CA -18.3791 -13.4765 45.2113
CA -4.33579 15.6569 43.192
CA -8.07955 7.45837 53.9981
CA -26.8614 -25.1641 51.6149
CA -9.45745 -16.3931 42.9616
CA 9.25335 -27.0514 56.6117
CA -24.4165 -12.0532 68.4539
CA -42.283 -33.287 46.6725
CA -15.2723 2.78428 52.8077
CA -6.3821 -34.9777 48.7503
CA -15.679 -17.6543 70.6884
CA -10.2815 2.84796 66.8919
CA -35.4553 -19.2012 50.7093
CA -22.1864 -23.4023 58.8178
CA -8.01622 -24.97 72.7791
CA -3.61281 18.0719 18.4243
CA -35.7392 -30.0054 42.8832
CA -11.0365 -9.21148 43.892
CA -4.76993 -15.9845 54.9931
CA -11.709 3.51606 34.4399
CA -16.1077 13.3876 23.3381
CA -15.9628 -20.12 39.3167
CA -14.8992 -1.42648 44.3336
CA 1.38618 -20.3668 88.6992
CA -17.8485 -28.5762 58.7623
CA -17.9745 -31.7898 33.3949
CA 8.20761 -23.7572 57.3473
CA -10.8044 -12.9605 87.1131
CA -14.132 -15.0915 47.0285
CA -0.58286 -24.9845 86.4272
CA -14.475 11.518 25.3623
CA -28.1304 -20.283 49.5906
CA -6.14261 -16.3706 58.029
CA -18.9799 -17.477 39.9555
CA -27.9524 -40.1867 57.8977
CA -40.2989 -9.54165 71.947
CA -5.54829 -17.6335 30.4706
CA -13.1447 -16.6766 84.1414
CA -28.196 -34.6749 58.4381
CA -33.2415 -10.9257 56.7728
CA -12.2403 -21.1279 60.7966
CA -21.5821 -46.1078 49.8333
CA 8.18624 -5.24024 63.436
CA -23.1317 7.0421 38.1304
CA -30.1312 -23.8675 62.1784
CA -10.7163 -22.8822 61.7744
CA -26.0083 -14.7207 52.8442
CA -23.489 -15.3764 51.5103
CA -17.5279 -18.6306 66.9529
CA -17.5482 17.0191 19.4523
CA -3.72526 10.4458 55.2793
CA -5.43744 6.46787 67.4789
CA -14.944 -4.75182 54.7905
CA -23.8471 -24.2177 38.03
CA -11.9783 6.66614 52.4078
CA 2.12676 -16.5936 49.7293
CA -11.2674 13.5431 19.6372
CA 2.58857 -29.7489 84.9263
CA -15.2239 -22.7727 33.2736
CA -30.6549 -8.5228 55.1871
CA -7.00998 1.95694 37.0096
CA -23.3901 2.77599 49.0958
CA -28.9093 -12.5146 53.2692
CA -13.0634 -7.76107 52.7222
CA -19.4944 -0.667578 51.9036
CA -12.2289 -21.1228 66.8721
CA -12.1621 -13.0383 24.9689
CA -12.8685 -9.79068 56.1326
CA -5.19095 -14.7149 44.7533
CA -26.4153 -22.9565 68.1189
CA -5.90353 -8.29679 45.9566
CA -6.27331 -5.87088 25.0497
CA -11.7839 -19.1529 69.2475
CA -37.7222 -9.88245 51.2454
CA 0.655219 -29.2938 83.862
CA 13.4839 -26.1696 58.1499
CA -7.62764 -6.53417 27.1592
CA -15.0763 -30.9938 61.9497
CA -11.5211 16.1312 30.0652
CA -26.2312 -13.0589 57.585
CA -20.7713 -24.3201 36.5786
CA -12.9836 -9.59414 48.0657
CA -36.4593 -6.03402 36.11
CA -29.9931 -19.1579 45.2349
CA -9.5571 -9.93097 73.0233
CA -10.3357 -6.21223 47.1011
CA -32.839 -19.9415 61.8945
CA 0.213946 -26.2285 76.2703
CA -31.153 -6.651 65.3935
CA -4.62219 12.1477 34.5264
CA -18.8399 -3.54542 71.1677
CA 6.70321 -22.4763 55.5036
CA -15.7329 -24.5997 71.6979
CA -2.45732 -28.1191 71.4135
CA 2.3258 -27.652 84.3123
CA -42.8083 -29.1628 46.1171
CA -32.5712 -9.09402 40.5274
CA -32.5806 -7.76979 38.5312
CA -14.0943 13.3109 21.6659
CA 3.36807 -23.1549 71.9623
CA -23.1807 -28.3522 50.249
CA -22.3927 -16.2352 62.2504
CA -37.9806 -6.72968 56.3
CA -40.7175 -13.8096 59.8132
CA -40.2488 -14.1176 48.0856
CA -18.5782 -23.614 50.3134
CA -34.6022 -21.3131 55.6939
CA -7.7941 -10.1154 64.6242
CA -41.481 -9.55987 62.8955
CA -32.2787 -29.4655 67.7371
CA -6.75571 -22.0914 31.6637
CA -44.2027 -3.92316 62.724
CA -18.4373 -30.5132 72.1838
CA -28.6662 -9.2395 67.6995
CA -33.9726 -1.76291 47.2114
CA -18.8622 -5.74785 54.6188
CA -23.3368 -20.9532 57.586
CA -11.4849 -14.9791 74.347
CA 5.26096 -23.1351 57.9217
CA -25.6106 -4.36589 36.5241
CA -34.1486 -15.4858 59.6982
CA -13.2861 6.00607 62.002
CA -8.61569 -19.3772 40.42
CA -35.3717 -18.1902 62.512
CA -37.9686 -18.876 52.979
CA -38.5902 -35.5196 50.4975
CA -13.7883 11.4292 21.1334
CA -45.0305 -14.9466 43.4139
CA -2.29037 -6.35189 24.2695
CA -10.2575 -32.5828 49.8026
CA -15.1178 -18.8761 57.3165
CA -19.5605 -19.8393 45.7065
CA -15.2743 -10.6353 46.8959
CA -11.33 -10.7767 14.1773
CA -6.58766 -35.7533 45.764
CA -21.6414 -28.8634 70.8623
CA -39.0243 -1.93532 46.5799
CA -15.1882 -16.7895 79.9886
CA -31.4887 -14.9512 44.331
CA -12.7359 -14.5277 81.3807
CA -5.94778 -14.6625 64.3768
CA 3.62651 -21.4893 51.7625
CA -2.69866 -28.2777 69.2791
CA -33.8578 -15.6907 54.8929
CA -9.81293 -21.3827 68.7268
CA 15.3433 -24.2353 57.4798
CA -35.4895 -27.9195 47.2395
CA -5.29645 -12.1826 63.4431
CA -43.491 3.24367 38.3381
CA -25.3294 -20.5113 36.9816
CA -33.8813 -29.3305 46.2373
CA -30.1383 -8.80081 80.0215
CA -19.7376 3.91684 38.0341
CA 4.16406 -28.9326 72.1995
CA -23.2042 -47.5545 48.1477
CA -23.5649 5.40944 42.6851
CA -33.562 -28.0231 50.231
CA -13.5779 0.548473 35.8418
CA -37.4661 -10.7045 59.052
CA -30.3579 -13.8806 30.9877
CA -24.0427 -42.3628 50.9048
CA -23.5119 -27.4048 32.668
CA -9.87284 -24.9432 45.3012
CA -15.1943 -14.4085 15.6165
CA -19.2327 -45.7998 48.5997
CA 0.413897 -16.9646 54.3588
CA -17.7812 -39.0487 52.8344
CA -13.2984 -27.3352 59.7488
CA -30.4662 -28.0647 64.7651
CA -16.0829 -13.1437 42.8245
CA -29.8633 -10.3956 59.5246
CA -13.953 -21.0639 58.5498
CA -12.3962 -27.3908 58.1152
CA 2.86191 -11.7396 25.8775
CA -9.53246 -5.90013 59.3282
CA -7.30396 3.37124 51.3653
CA -6.04449 10.6955 49.8422
CA -24.2281 -29.3572 48.9492
CA -15.352 -31.0732 58.9498
CA -18.9918 -14.194 42.5408
CA -10.9708 11.9979 34.0634
CA -24.4239 -39.0287 57.905
CA -23.2181 -8.16426 64.9822
CA 1.43875 -7.80407 22.8612
CA 0.826936 -31.4099 74.199
CA -22.2308 -18.9027 44.2088
CA -32.7844 -9.17308 57.7309
CA -14.1416 -18.6649 64.06
CA -14.7212 -15.1358 42.1781
CA -12.7278 -31.6802 73.0096
CA -26.5909 -40.0336 54.1713
CA -28.9996 -19.659 62.3949
CA -15.2527 -25.4572 45.0152
CA -18.6839 -11.2091 39.8291
CA -31.7558 -33.6076 54.0742
CA -13.6954 -11.756 84.1234
CA -30.2138 -40.6645 59.0028
CA -10.6836 7.97449 32.0437
CA -28.8633 -17.7702 66.495
CA -5.7337 17.6677 21.8704
CA -6.32354 15.9027 21.3454
CA -12.5442 -6.48088 43.2028
CA -12.2775 -14.453 38.1623
CA -16.0394 -20.4279 35.5325
CA -33.2414 -17.3022 62.4029
CA -6.08125 -12.8042 70.2183
CA -5.25926 -31.9932 70.8231
CA -1.39249 -18.3831 59.8972
CA -38.9854 -17.2208 53.6508
CA -5.97709 18.2897 45.1427
CA 7.12925 -3.72659 56.1077
CA -21.3714 -25.8725 56.5068
CA -8.8223 -10.4237 26.5763
CA 16.4283 -29.0364 54.4711
CA -19.784 -26.9701 70.817
CA -17.3854 -12.8782 47.7287
CA -2.46145 -5.52258 53.6038
CA -36.5576 -1.42838 51.8993
CA -38.7203 -22.3967 52.1863
CA -3.62379 -8.6999 73.1283
CA -19.7648 -26.8078 67.4168
CA -35.9595 -5.45501 60.1154
CA -10.2188 -17.2585 28.303
CA -9.31519 -12.8046 85.8572
CA -10.9681 -21.8731 41.1593
CA 0.686234 -11.1336 26.287
CA -6.50733 -31.5597 55.5516
CA -39.6373 -35.0231 42.0591
CA -25.159 -15.628 64.9548
CA -0.968107 -16.0595 62.4897
CA -43.6439 -1.35559 60.8347
CA -32.0321 -13.6161 32.1281
CA -4.74244 -16.5835 59.4776
CA -31.8348 -18.597 46.6224
CA -33.5131 -12.0181 51.2354
CA -7.39629 -4.83611 58.9805
CA -16.1934 -22.0707 28.988
CA -36.5595 -14.269 60.8112
CA -34.4996 -7.29877 66.1127
CA -18.29 21.7997 17.0123
CA -8.10208 -35.6544 53.8796
CA -9.20721 -25.7273 46.7811
CA -3.60858 13.3062 44.4466
CA -10.4972 -10.723 59.9469
CA -16.9593 -23.1234 72.6524
CA -36.4841 -11.4552 54.6224
CA -25.6457 -15.7122 61.3357
CA -4.56966 2.52561 52.663
CA -25.4504 -18.8915 50.2612
CA -34.3868 -29.0274 62.1329
CA -16.7443 -9.06523 40.7678
CA -30.7942 -23.0755 42.1089
CA -9.84252 -18.09 68.3668
CA -27.0322 -5.22845 68.273
CA -6.04531 12.8128 35.6343
CA -33.6152 -26.2572 63.7132
CA -26.9368 -21.0871 41.7295
CA -8.93254 -12.9408 16.1044
CA -18.6493 -44.0548 49.5252
CA -31.6373 -39.4451 58.5417
CA -5.7471 -32.0058 52.4505
CA -26.4819 0.345699 48.9276
CA -41.0211 -15.373 51.8994
CA -16.4968 -27.2482 71.7849
CA -18.1589 -18.3441 46.5165
CA 15.7012 -32.6105 54.2801
CA -23.5078 -23.1246 67.7414
CA -39.7308 -2.7799 35.9031
CA -30.7088 -18.0502 60.7278
CA 3.32031 20.1154 23.797
CA -30.5024 -16.9832 54.6738
CA -24.8392 -15.3944 56.3506
CA -20.374 -33.2602 51.2321
CA -42.1935 -13.3636 44.033
CA -44.8097 0.644281 36.3996
CA -24.8445 -20.1249 62.0242
CA -20.9624 -30.9992 68.7925
CA 6.77632 -13.2914 27.8579
CA -17.594 0.9987 53.3549
CA 0.00626832 -9.02183 22.8435
CA -10.0676 -19.6806 55.2694
CA -9.73823 -30.3508 49.5766
CA -14.5884 -14.5535 18.371
CA -26.4229 -19.1091 41.5237
CA -20.1285 -24.8947 62.4341
CA -32.688 -12.2384 58.2558
CA -38.4828 -31.3901 51.491
CA -23.5269 -26.4028 63.13
CA -30.616 -29.0255 66.6469
CA -1.0029 15.979 20.5881
CA -7.00923 8.55451 48.9391
CA -4.88452 8.4738 65.6775
CA -41.2626 -8.5766 70.2978
CA -16.2621 -14.8907 47.8436
CA -28.5546 -34.8524 63.1035
CA -16.6534 -4.55211 53.2177
CA -28.6435 -19.0534 59.8684
CA -29.0254 -17.2221 62.3604
CA -13.1371 -18.076 72.0588
CA 6.78381 -23.1597 63.5983
CA -31.3833 -11.206 55.896
CA -2.49068 -14.3369 29.1009
CA -4.136 -4.13979 46.1796
CA -35.6355 -8.82972 34.7221
CA 9.30208 -5.54068 60.7
CA -23.3273 0.796376 53.3748
CA -29.398 -13.1324 46.1256
CA -25.3154 -17.5837 62.7907
CA -29.0499 -11.6131 49.5703
CA -12.2376 -10.8691 20.3427
CA -7.79516 -31.2963 45.6403
CA -33.5273 -3.99029 48.378
CA -17.0989 -32.2752 62.7595
CA -32.7654 -27.8418 65.2271
CA -22.2041 -6.25713 63.7384
CA -13.9773 1.00536 41.503
CA -21.5068 -32.3468 59.1739
CA -17.3168 -15.907 44.4069
CA -15.024 -32.4336 48.0845
CA -33.6773 -30.8454 72.4361
CA -35.4575 -1.33472 50.4659
CA 1.81795 -4.21365 54.9536
CA -10.8595 -31.7461 71.5163
CA -14.99 -23.5672 39.5324
CA -29.1271 -29.5371 45.8038
CA -15.0111 -15.2787 82.2407
CA -13.7585 -21.9929 47.22
CA -23.2812 -16.8385 63.8975
CA -1.87163 -10.0347 74.1192
CA -16.4805 -11.8703 44.3158
CA -18.3675 6.28337 38.054
CA -26.5791 1.99788 50.4724
CA -37.7718 -15.1052 51.9505
CA -11.1996 -28.4244 74.3426
CA -12.7157 -11.9848 80.3277
CA -41.4448 1.84906 34.1432
CA -17.191 -14.1101 79.4692
CA 5.16532 -30.1861 70.8089
CA -3.16599 -12.9217 55.8424
CA -6.30355 -2.25783 39.005
CA -15.6536 -24.1155 49.0401
CA -41.0772 -5.01915 66.5432
CA -22.9674 -12.6782 61.0914
CA -23.0607 -29.1654 61.4835
CA -22.9861 -17.9305 42.2186
CA -9.83938 -17.1033 20.1311
CA -3.28916 16.6376 51.224
CA -2.88212 6.9688 50.7457
CA -2.18882 -3.50156 51.5364
CA -19.9451 -28.6654 64.5545
CA -30.4538 -11.0056 35.0178
CA -15.1838 -25.7513 50.1559
CA -35.2458 -28.7989 55.4816
CA -1.56722 -4.2818 42.1943
CA -34.2337 -3.49473 54.3282
CA -11.8654 18.1471 19.2983
CA -6.01255 -1.09815 61.2702
CA -5.8388 -28.287 48.5972
CA -26.0057 -25.5021 37.5962
CA 3.44991 -21.9698 62.6232
CA -25.4996 -17.7807 54.589
CA 9.78963 -19.5114 64.341
CA -23.1482 -6.78453 66.5764
CA -17.1923 -30.1492 62.1177
CA -11.9571 -30.9067 53.2222
CA -27.6433 -24.3884 58.797
CA -11.7805 -10.4966 45.8111
CA -8.38353 6.88994 48.3891
CA -11.6414 -15.7525 35.7136
CA -35.1634 -2.18323 55.8199
CA -34.1778 -8.6491 76.9452
CA -19.4652 -28.4578 59.9759
CA -1.52064 -10.1334 65.0612
CA -34.5212 0.347953 50.0492
CA -11.0535 -3.79565 53.6885
CA -8.52422 -0.441487 63.124
CA -39.7184 -16.6081 47.5378
CA -30.7189 -7.91703 57.9763
CA -42.6333 -31.758 48.7226
CA -21.4646 -25.3557 35.186
CA -3.07883 4.91135 66.8193
CA -36.5325 -8.41025 66.3319
CA -8.81553 1.04724 55.5551
CA -39.3146 -8.67321 57.6307
CA -20.7086 -20.922 36.8235
CA -26.9218 -11.1181 72.531
CA 0.824869 -18.9153 59.5332
CA 5.22822 -21.0468 60.4427
CA -26.5903 -27.0143 67.9637
CA -6.55568 -32.6898 46.6213
CA -12.3693 -34.6486 49.7132
CA -25.0461 -21.064 43.1528
CA -37.3005 -19.1416 63.2415
CA -12.9131 -33.3702 72.1048
CA 2.02029 -22.6677 56.3902
CA -41.5244 -12.6393 57.6355
CA -36.1115 -22.5058 55.0322
CA -6.4222 -31.7246 49.9428
CA -25.8562 -43.7534 56.9985
CA -8.45621 -21.4756 57.0243
CA -27.9911 -2.01868 36.7989
CA -12.7152 -27.3734 74.1046
CA -22.8052 -16.7831 44.169
CA -7.391 1.5541 54.2143
CA -42.2656 -0.965926 38.6389
CA -40.4277 -8.32181 68.459
CA -26.1353 1.9195 53.7524
CA -20.2293 -27.6947 35.3632
CA -14.6658 -21.4456 56.0326
CA -29.4884 -14.358 55.6399
CA -40.0146 -14.9304 53.8439
CA -15.0648 -33.8182 61.9332
CA -31.3783 -11.7441 38.1844
CA 2.33063 -28.8396 80.3557
CA -1.00184 20.0034 22.0182
CA -21.54 -27.8352 51.12
CA -10.1737 -22.7633 37.3523
CA -16.1197 -15.3672 20.0379
CA -34.7214 -8.33588 74.3245
CA -28.0031 -10.2567 51.2092
CA -24.0632 0.300574 38.8218
CA -9.62398 7.35032 64.932
CA -36.7046 -27.0164 42.6796
CA -8.15897 16.5352 21.605
CA -16.3407 -23.843 45.4954
CA -39.9397 -24.6382 52.8892
CA -30.1013 -14.3705 51.6947
CA -27.7877 -18.0469 57.2887
CA -7.56579 -36.5767 49.0809
CA -15.7861 -40.2053 48.4424
CA -15.9345 -18.6075 79.8752
CA -33.192 -33.1231 53.1005
CA -0.187861 -24.436 72.4171
CA -26.4154 -28.7149 46.5188
CA -12.3326 -20.3959 45.244
CA -28.3028 -12.8491 58.0518
CA 5.49823 -14.8389 25.4856
CA -22.8843 -30.5456 46.4966
CA -3.78801 25.7819 50.9116
CA -21.6698 -18.0787 50.8086
CA -31.1703 -5.4504 69.633
CA -3.27647 20.9826 49.4198
CA 11.0384 -2.5756 62.0528
CA -14.1576 -20.6493 74.8024
CA -1.15173 -19.3523 62.245
CA -32.585 -33.3078 58.6318
CA 5.41463 -6.64166 63.005
CA -13.6619 14.2424 27.6142
CA 5.29978 -14.4185 29.1077
CA -36.4383 -12.8103 73.5172
CA -8.06837 -18.4344 54.9354
CA -33.6542 -30.477 55.6167
CA -36.9554 -23.276 57.3473
CA -17.0666 -28.9646 34.7435
CA -19.3466 -21.3294 25.3837
CA -5.72198 -35.7851 51.8599
CA -41.3208 -6.52226 70.3388
CA -19.3812 -31.658 70.2581
CA -7.34817 -11.0497 16.0158
CA -15.4208 -21.879 66.1327
CA -5.76144 -12.6185 57.1457
CA -32.9271 -31.281 53.7198
CA -40.9098 -13.089 53.9018
CA -40.6138 -9.77149 59.1856
CA 7.92173 -8.92216 63.3096
CA -27.4545 -15.03 64.9377
CA -9.41109 -21.1075 42.3545
CA -17.4963 1.94405 33.6251
CA -14.0007 -33.8107 54.4621
CA -2.77385 9.75844 47.9945
CA -16.0843 10.1521 21.8793
CA -14.1908 -27.726 70.3178
CA -3.981 27.614 51.0486
CA -10.8786 -7.15218 71.0967
CA -11.055 -15.5829 28.7306
CA -1.92081 20.3438 19.5046
