489

CA -24.2652 0.94395 40.7792
CA -22.3013 -15.4691 58.4018
CA -4.75826 -25.5303 39.6143
CA -19.3548 -22.7148 90.5233
CA -11.3976 -20.2053 31.1327
CA -37.5258 -22.2247 71.182
CA -10.2316 -29.6621 74.8285
CA -20.004 -13.1503 44.1968
CA -23.0699 -19.6543 62.4638
CA -31.8321 -17.5288 67.1639
CA 8.91476 -24.3735 57.5358
CA -15.3417 -24.1605 46.1806
CA -4.29677 -15.3868 50.3783
CA -19.6084 -3.255 50.5713
CA -33.1382 -6.39701 44.7528
CA -41.3554 -9.87314 74.6892
CA -14.4013 -15.802 37.1102
CA -25.9752 1.29148 44.8425
CA -11.7914 -4.67164 42.8504
CA -0.730268 -28.8421 61.1724
CA -13.6095 -20.3922 43.3871
CA -15.2723 2.78428 52.8077
CA -47.8284 -4.53034 59.8263
CA -31.9645 -33.8788 58.9757
CA -28.925 5.68415 46.5474
CA 0.631666 -28.0823 73.8354
CA -4.87716 -19.4577 46.3942
CA -35.5074 -31.1391 60.39
CA -13.9117 -0.821627 68.4848
CA -38.4139 -16.2478 75.5314
CA -9.07013 -11.2283 59.4979
CA -11.21 -21.9795 40.8073
CA -11.709 3.51606 34.4399
CA -16.1077 13.3876 23.3381
CA -13.2191 -25.4266 58.9145
CA -16.3466 -29.503 52.0789
CA -19.4612 -4.33725 48.8621
CA -10.0427 -25.2953 31.5254
CA -22.3002 -12.9546 45.3601
CA -18.4093 -17.2033 49.9035
CA -6.10103 -22.7838 47.5819
CA -15.8437 1.26151 57.2739
CA -30.8914 -2.66433 36.2831
CA -25.6772 -26.3293 72.5835
CA -6.94339 -25.3125 72.9757
CA -12.8262 -22.8315 44.2712
CA -12.8973 6.90842 51.1155
CA 2.04066 -24.5302 62.8736
CA -6.18063 -27.2004 71.8995
CA 5.30447 -5.52895 67.3342
CA -11.7343 -27.5725 55.8379
CA 4.94908 -4.05313 56.8163
CA -1.07251 -28.9939 48.8684
CA -32.8851 -26.929 58.5872
CA -21.131 -21.6517 33.761
CA -17.934 -11.5333 42.7163
CA -18.9483 -6.55149 54.4523
CA 3.50605 -10.0386 53.7032
CA -16.0636 -29.3614 58.4431
CA -32.3301 -36.5212 60.0731
CA -42.7822 -27.5601 54.4934
CA 4.8786 -30.1338 85.3279
CA -17.5482 17.0191 19.4523
CA -2.86948 -7.48241 70.6371
CA -25.7422 -37.0277 63.3818
CA -13.2622 8.36232 49.7505
CA -30.3695 -9.14146 43.6453
CA -8.512 -21.6423 51.206
CA -11.7063 -22.4258 74.9441
CA -2.24722 -0.385221 58.2931
CA -15.2386 -7.30498 55.1186
CA -8.52224 -26.4188 72.5231
CA -16.62 -19.3408 8.59533
CA -7.68601 3.78172 58.6998
CA -9.41607 -26.732 38.1215
CA -28.6601 -8.08558 65.5679
CA -12.0058 -13.7734 19.3577
CA -28.642 -28.907 66.6205
CA -6.40778 -9.01769 15.6704
CA -37.8874 -3.11787 41.1459
CA -33.4966 -29.5413 58.8409
CA -32.6255 -23.7389 45.5197
CA -6.36712 -26.4442 39.298
CA -30.8504 -20.6241 50.4
CA -5.6265 -10.2823 59.1815
CA -27.1983 -36.4189 60.6517
CA -15.2569 -31.2193 64.5889
CA -33.0379 -18.8426 52.0941
CA 13.4839 -26.1696 58.1499
CA -42.3381 -22.9168 55.899
CA -0.521241 -7.51969 73.178
CA -17.5461 -19.9637 83.134
CA -43.2772 -6.12527 67.6983
CA -6.39614 -18.9924 66.2263
CA -6.78722 -36.9672 68.7865
CA -36.4593 -6.03402 36.11
CA -41.736 -10.1729 61.3721
CA 1.00432 -6.83644 55.3328
CA -29.4246 -14.4989 72.5024
CA -36.4264 -23.6768 46.7008
CA -7.86608 -33.1987 65.8915
CA -35.4504 -32.9304 59.8791
CA -21.6952 -1.38092 49.7851
CA -28.1979 -38.2965 66.314
CA -41.3316 -2.19894 62.5623
CA -45.9304 -17.9826 77.2866
CA -9.64185 0.67383 33.8802
CA -21.3735 -3.33688 48.9482
CA -6.77862 -3.96108 24.862
CA -16.6974 -5.71127 51.8182
CA -32.6797 -12.94 61.9446
CA -6.37954 -20.8419 46.8741
CA -6.97576 -18.9339 40.405
CA -22.5189 -30.7943 63.2432
CA -45.9437 -9.8449 67.524
CA -3.9853 6.61589 56.4099
CA -16.6248 -25.0736 47.334
CA -16.5013 -18.4593 37.9592
CA -15.1376 -11.0766 26.8115
CA 0.0202907 -10.113 58.3544
CA -11.5128 -33.7134 62.5719
CA -6.22992 -2.09143 58.8217
CA -24.6492 -8.30995 69.06
CA -10.7198 13.578 32.3648
CA -37.5729 -5.56616 68.6528
CA -25.2036 -12.077 70.3984
CA -32.4497 -9.43897 71.1407
CA -32.0303 -15.8885 50.3181
CA -9.39388 -17.3134 41.026
CA -5.26608 -9.67244 67.6552
CA -23.8718 -29.2168 61.0276
CA -9.18913 -18.7038 12.3688
CA 3.06729 -6.53653 53.7581
CA -9.59771 -27.7427 74.5179
CA 4.59841 -30.9379 77.1377
CA -12.7656 -14.6516 83.9785
CA -18.7221 -16.1117 61.3032
CA -50.4318 -5.62158 61.4104
CA -16.992 -23.0592 33.8221
CA -29.9201 -18.3068 66.0099
CA -28.3304 0.0766822 42.4694
CA -28.5302 -17.6555 79.4519
CA -0.79801 -8.89318 69.6117
CA -2.78113 -18.507 73.5832
CA -13.2029 -11.9308 27.0916
CA -17.8707 -11.1838 13.8944
CA -13.8919 -17.8938 11.3644
CA -22.9411 6.31861 57.9694
CA -30.7577 3.24331 50.812
CA -37.0893 -19.2367 53.4977
CA -31.8042 -32.6591 55.9736
CA -20.2097 -15.3032 49.6198
CA -26.5205 -31.986 49.8111
CA -27.4537 -14.1477 64.3715
CA -38.9794 -19.9401 52.3136
CA -3.45158 -10.3597 71.2499
CA -13.2373 -22.8147 36.2688
CA -1.22248 -18.2949 48.8232
CA -6.42598 -9.46479 45.1147
CA -4.06508 -18.6951 49.982
CA -13.2684 15.3833 30.3299
CA -44.5212 -15.1779 55.3059
CA -11.5666 -7.25082 66.0837
CA -39.2898 -18.617 54.0887
CA -44.108 -9.16741 65.6815
CA -37.0291 -4.39766 45.0123
CA -9.32673 -19.5367 62.4732
CA 2.7415 -6.49646 64.8209
CA -24.583 -26.6982 55.0251
CA -24.1454 -31.6892 48.8193
CA -40.4281 -23.868 39.8761
CA -8.01634 -0.715221 60.353
CA -12.192 -11.3052 56.7901
CA -24.3209 2.82408 56.4717
CA -19.1605 -10.536 43.9459
CA -3.03359 -27.8717 42.9848
CA 2.55849 -35.75 91.4002
CA -1.74761 -27.9169 47.4934
CA -36.744 -16.5329 46.9054
CA -37.2127 -16.0785 50.83
CA -31.6795 -28.2383 53.4421
CA -40.7509 -25.5266 56.7823
CA -4.64769 19.7031 19.1175
CA -13.3561 -33.3321 63.1757
CA -17.3063 -33.6719 54.8196
CA -41.99 -7.32318 78.7783
CA -25.9049 -14.9921 39.072
CA -31.4648 -18.0136 65.1241
CA 5.01221 -26.7087 69.7449
CA -26.2477 2.9271 56.7371
CA -25.4334 -44.7255 45.0597
CA -4.45569 -14.7928 53.6407
CA -41.4251 -13.4261 64.2571
CA -11.5756 -15.827 79.4905
CA -30.4793 -13.1814 64.5812
CA -43.7702 -15.7644 74.5542
CA -30.1635 0.92533 48.2745
CA -32.9216 -8.96662 68.9363
CA -26.4683 -18.8253 36.3128
CA -30.6126 -28.113 68.8939
CA -29.1649 -23.8595 49.0455
CA -9.7336 -10.8755 38.5081
CA -3.72516 -6.12295 25.0953
CA -18.4188 -6.75111 51.5052
CA -13.5895 -26.7971 31.6567
CA 6.50187 -6.61374 64.7277
CA -12.8798 -27.7796 52.0017
CA -33.909 -25.15 67.091
CA -8.0595 -12.243 16.2487
CA -23.8573 -11.9267 71.9156
CA -10.6836 7.97449 32.0437
CA -46.2562 -15.5832 77.9753
CA -7.83904 -19.2214 46.3102
CA -6.32354 15.9027 21.3454
CA -35.1838 -29.9401 43.2615
CA 1.64887 -32.2706 86.4658
CA -18.1709 -0.261286 55.2831
CA -0.536329 -5.99668 57.8103
CA -9.29652 -20.1686 43.1938
CA -23.7998 -3.40167 48.3298
CA 1.49942 -18.8016 51.6754
CA -6.13155 -10.106 48.3077
CA -19.0987 -32.3904 64.666
CA -3.26715 -29.7316 57.6574
CA -15.4759 -21.247 81.5361
CA -7.55538 -29.7819 69.8811
CA -16.418 -11.9612 81.1656
CA -14.7293 -16.6746 81.2418
CA -27.734 -25.5447 67.2133
CA -41.7398 -23.68 52.2056
CA -37.6343 -9.22532 74.4184
CA -40.1411 -14.0194 75.6897
CA -16.5709 -15.4434 60.6805
CA -29.617 -12.365 70.7351
CA -21.308 -21.7043 37.4007
CA -44.9632 -6.07672 66.2877
CA -12.2807 4.47733 49.8432
CA -12.5485 -16.0042 63.6675
CA -37.2997 -3.21555 33.9723
CA -14.3431 -19.9496 10.8576
CA -16.6117 -8.18452 50.1194
CA -49.5106 -19.4347 79.7878
CA -17.3868 6.76037 49.2849
CA -43.6439 -1.35559 60.8347
CA -22.9874 -33.4415 47.4045
CA -23.0261 -34.3699 49.423
CA -40.7854 -16.656 76.8593
CA -5.33194 -2.26054 54.6283
CA -4.90765 -9.02487 46.0528
CA 3.82087 -5.66707 62.1222
CA -43.0043 -11.267 63.0881
CA -12.4991 -18.5503 15.1548
CA -6.17916 -19.1587 71.87
CA -14.2857 -12.5204 86.8242
CA -18.0014 -22.5784 86.6753
CA -5.75297 -6.43803 72.1051
CA -7.45515 -18.9924 52.1296
CA -12.0984 -14.3945 12.814
CA -1.62363 -9.48083 66.6205
CA -37.6968 -22.3704 41.1689
CA -12.439 -24.4829 40.9932
CA -22.9544 -3.74348 46.5134
CA -8.84251 -16.5882 62.6882
CA -25.664 8.01136 54.8211
CA 2.76036 -16.2977 70.0937
CA -16.3585 -10.3071 53.0191
CA 3.58649 -27.1708 73.8579
CA -40.4453 -10.9016 38.7174
CA -11.9705 -26.2612 57.2977
CA -15.0741 -26.6105 76.8828
CA -17.8698 -35.9902 56.104
CA -6.80515 -17.5844 49.2493
CA 2.05654 -31.3551 88.5737
CA -2.20378 -16.0174 67.7906
CA -2.44398 -5.37985 70.2726
CA -32.4654 -16.463 55.6605
CA -40.7926 -18.5832 52.8853
CA -8.86086 -8.73494 45.5402
CA -15.3389 -26.6542 74.6706
CA -34.6869 -2.1327 49.6172
CA -47.9551 -1.60421 59.8109
CA -29.3511 -10.8981 72.6517
CA 3.79241 -38.4568 91.3632
CA -28.3396 -4.36918 45.2654
CA -14.6683 -17.0924 29.0853
CA -31.5143 -30.5177 51.2403
CA -5.9132 -27.3095 31.1775
CA -10.6878 -27.8409 39.8296
CA -23.0821 -22.2078 35.217
CA -21.6282 -29.0047 59.5497
CA -38.3514 -20.066 41.0294
CA -18.4238 -18.6516 85.5348
CA 0.00626832 -9.02183 22.8435
CA -41.549 -19.5088 55.1338
CA -11.3707 -29.9682 34.0665
CA -14.5884 -14.5535 18.371
CA -34.7137 -30.6331 49.256
CA -10.0476 -28.7919 54.1546
CA -17.0215 -20.4534 80.4831
CA -38.4828 -31.3901 51.491
CA -18.2085 -13.0369 73.4679
CA -38.8812 -21.4959 55.4779
CA -40.5065 -11.2826 73.2185
CA -8.31272 -11.3181 48.6922
CA 0.299523 -16.7886 66.5056
CA -29.9846 -17.2025 75.3216
CA -10.2953 -28.3808 49.717
CA -23.778 -16.3601 39.5106
CA -37.8101 0.354664 38.2518
CA -3.52864 -9.13243 47.6111
CA -11.2328 12.8209 21.4912
CA -40.1427 -25.6395 51.8783
CA -16.3543 -11.2365 58.594
CA -43.2313 -6.89101 65.6351
CA -32.7552 -12.726 65.0088
CA -3.86151 -19.0302 48.2233
CA -8.40609 2.73077 37.3672
CA -14.0461 -22.1952 77.7019
CA -6.5496 -30.9491 45.5801
CA -40.0732 -14.0299 62.4458
CA -23.8551 5.70053 53.5926
CA -8.53903 1.73669 63.1923
CA -18.9324 -11.9795 45.1161
CA -41.3256 -16.2821 70.0944
CA -10.5277 -23.7452 28.827
CA -35.3111 -9.91597 75.4832
CA -9.36845 -9.27476 60.5922
CA -33.4997 -31.7831 45.8922
CA -9.11734 -27.5972 69.6658
CA -4.38364 -22.8942 37.7388
CA -29.6641 -20.2195 39.2133
CA -18.5037 -24.92 85.1831
CA -3.33545 -10.3723 66.8665
CA -20.5462 -23.8977 39.3367
CA 1.81795 -4.21365 54.9536
CA -20.0936 -11.6716 61.4401
CA -25.0456 -27.5035 58.7698
CA 6.64735 -29.0434 86.2421
CA -35.744 -10.5945 64.9933
CA -6.19076 -25.783 48.5599
CA -18.7507 -29.289 61.027
CA -21.8335 -13.8259 41.9443
CA -20.6903 4.69922 47.2463
CA -29.2382 -12.0739 65.5616
CA -31.8278 -34.2365 57.0721
CA 5.07686 -11.9481 60.1368
CA -27.646 -43.3811 44.2543
CA -18.6996 -21.4563 73.3448
CA -38.0449 -27.628 48.8365
CA -31.4983 -23.5462 65.0909
CA -42.8492 -5.72777 69.7975
CA -8.30384 -10.1524 36.244
CA -35.5555 -26.9327 49.4401
CA -23.5116 -17.5928 46.8689
CA -30.9667 -30.8318 69.1984
CA -15.8393 -15.832 22.3727
CA -17.9574 14.9321 27.965
CA -30.6317 -11.4775 43.1174
CA -44.1788 -3.88845 62.984
CA -3.87537 0.448925 54.2081
CA -38.4388 -25.8107 38.9445
CA -27.4888 -0.839715 40.982
CA -9.78468 -8.20063 69.2697
CA -35.2305 -6.78201 68.7064
CA -9.01706 -8.58984 23.1212
CA -43.461 -11.3594 67.5193
CA -8.19715 -12.235 21.0278
CA -3.16139 8.39789 56.6735
CA -11.7274 -17.5568 22.5005
CA -5.76986 -11.8568 45.3179
CA -17.4387 -18.1973 73.507
CA -25.6604 -39.3345 46.3099
CA 1.49416 -20.6809 56.3943
CA -32.143 -33.2791 46.6241
CA -19.8797 -15.3273 42.6535
CA -11.2679 -10.0396 57.9216
CA -21.9729 -22.6854 58.3558
CA -29.1071 -36.3124 62.0919
CA -32.068 -2.57659 47.5412
CA -43.2517 -4.31302 65.3625
CA 0.521598 -22.6681 57.6097
CA -16.1661 -14.0905 70.546
CA -30.0277 -13.4357 68.2586
CA -13.3342 -25.9797 37.3333
CA -20.7423 -15.9632 60.412
CA -12.4052 -16.3807 59.844
CA -27.2375 -22.7102 71.5479
CA -15.2866 -31.1464 67.79
CA -18.2672 -7.20258 82.3978
CA -10.8472 -0.96172 38.5091
CA -22.1136 -29.1795 62.4957
CA -12.1432 -14.4106 36.0547
CA -30.5612 -13.3931 48.8674
CA -21.5699 -21.5933 69.7718
CA -13.1041 -16.2153 80.411
CA 1.17957 -9.43056 70.0338
CA -45.0861 -18.3215 55.1191
CA -38.0859 -22.7398 60.0121
CA -9.59834 6.47373 54.52
CA 1.0574 -23.5751 83.8154
CA -7.90493 -6.07047 65.3921
CA -15.3738 -16.4345 39.8468
CA -18.5764 -22.9691 59.6543
CA -26.9343 -17.5316 80.5672
CA -10.3422 -20.7728 39.5424
CA -23.1751 -10.6435 52.0239
CA -15.0822 -3.10827 60.2832
CA -7.65978 -10.5206 43.9056
CA -16.6013 -16.3147 71.2784
CA -1.41491 -32.8271 84.8362
CA -15.6296 -23.9711 74.4541
CA -10.8115 -3.73046 76.8581
CA -23.8751 -41.0876 47.2511
CA -25.9652 -14.9006 57.3401
CA -6.08622 -9.98326 50.2752
CA -23.5507 -35.425 46.8788
CA -33.4258 -5.50231 39.9393
CA -39.1693 -36.1186 53.7384
CA -23.0368 -14.1673 53.2135
CA -13.029 -13.8161 69.2156
CA -33.6608 -25.4704 71.7117
CA -44.6618 -20.8687 54.8879
CA -9.32489 -27.61 55.5488
CA -3.6232 -23.231 73.6451
CA -24.7682 -30.0021 69.0315
CA -32.5253 -29.2225 48.3932
CA -1.77559 -18.3693 69.136
CA -19.1159 -19.0215 37.4038
CA -8.71134 -23.1081 47.0428
CA -41.0432 -5.17492 40.5027
CA -31.4133 -30.899 44.8491
CA -13.3142 -9.85117 13.9164
CA -32.8896 -21.0537 42.3764
CA -33.2856 -16.9824 69.6629
CA -14.4078 -25.6688 72.1586
CA -14.7793 -18.8101 49.8977
CA -14.606 -18.1782 71.2019
CA -10.7132 -15.3307 77.8632
CA -10.1525 -29.1283 59.6499
CA 5.16934 -28.8778 81.7093
CA -13.9024 -1.11877 63.5316
CA -9.97167 -32.3763 35.8768
CA -24.074 -14.6654 38.9446
CA -8.45349 -17.1099 71.568
CA -22.9393 -32.5277 53.9653
CA -2.34862 -26.4992 74.7585
CA -20.9785 3.2434 45.848
CA -1.34249 -20.0587 67.6382
CA -35.0889 -21.7773 41.4381
CA -22.6238 4.90968 46.0417
CA -1.97298 -22.1533 56.6045
CA -9.76517 -10.1098 56.6408
CA -29.4056 -2.13803 42.4399
CA -35.3384 -12.8978 66.1429
CA -6.12564 -15.4841 63.6191
CA 4.26638 -9.57149 57.9509
CA -38.1708 -7.2762 77.8271
CA -21.9221 5.88636 49.397
CA -15.6522 -12.9343 14.5493
CA -17.4291 -31.5991 48.7717
CA -13.6619 14.2424 27.6142
CA -23.8163 -15.5836 64.6458
CA -30.5098 -3.67876 46.1035
CA -10.8662 -17.774 72.4409
CA -30.954 -19.2632 69.394
CA -5.08413 -21.2642 70.3485
CA -9.05476 -9.39338 75.0593
CA -15.2726 -25.3148 30.005
CA -0.488814 -12.6993 55.1372
CA -11.1314 -11.2432 62.6424
CA 5.87791 -23.1447 54.7656
CA -8.01934 -19.7604 44.5881
CA -22.6205 -35.4243 51.2046
CA -27.0508 -9.35375 52.2362
CA -3.3401 -30.3526 50.2295
CA -22.8578 -27.1601 56.9706
CA -10.1134 -16.2505 68.4755
CA -40.4167 -7.89456 41.1509
CA -40.059 -6.80291 60.2841
CA -6.36363 -28.8725 51.0159
CA -6.46462 -19.9459 49.5069
CA -4.6253 -21.3246 50.5438
CA -10.4753 -14.7441 25.211
CA -12.763 -6.19884 77.7284
CA -10.0028 -9.48505 49.0664
CA -9.28651 -30.9312 71.9846
CA 3.96665 -24.9664 88.449
CA -8.68771 -5.63291 19.8807
CA -12.7437 -13.0044 82.0016
