489

CA -15.346 -19.4311 68.2835
CA -30.6484 -27.7888 66.4116
CA -4.75826 -25.5303 39.6143
CA -40.266 -16.4316 75.1354
CA -11.3976 -20.2053 31.1327
CA -37.5258 -22.2247 71.182
CA -4.65433 5.23838 59.0987
CA -17.7201 -9.06113 53.3187
CA -27.631 6.84689 47.2651
CA -45.971 -15.6805 71.3063
CA -19.6754 -25.5104 62.4274
CA -37.9274 -9.94935 67.12
CA -29.8607 -36.8072 59.5994
CA -19.6084 -3.255 50.5713
CA -6.42539 -18.4744 74.8673
CA -41.3554 -9.87314 74.6892
CA -13.793 -19.2411 36.0877
CA -25.9752 1.29148 44.8425
CA -5.94796 -19.6524 44.8495
CA -0.730268 -28.8421 61.1724
CA 2.77082 -14.8466 58.4242
CA -9.63579 0.549082 53.4636
CA -44.796 -7.97226 72.1428
CA -18.9585 14.842 19.2187
CA -28.925 5.68415 46.5474
CA 0.631666 -28.0823 73.8354
CA -17.7504 -15.5399 40.5083
CA -3.14709 -20.6696 47.2849
CA -13.9117 -0.821627 68.4848
CA -10.1917 -18.2557 41.5461
CA -9.07013 -11.2283 59.4979
CA -19.3828 -18.6589 71.1985
CA -11.709 3.51606 34.4399
CA -16.1077 13.3876 23.3381
CA -6.09091 -22.7051 51.5797
CA -16.3466 -29.503 52.0789
CA -1.50637 -11.0974 71.5464
CA -10.0427 -25.2953 31.5254
CA -5.20936 -25.7804 71.124
CA -31.5563 -16.8866 60.9682
CA -6.10103 -22.7838 47.5819
CA -31.9428 -27.3974 47.3804
CA -16.4245 -30.9058 33.8733
CA -15.346 -18.3431 76.1229
CA 5.48318 -23.8578 71.6095
CA -8.59922 -25.9262 47.947
CA -31.9905 -15.2772 47.9785
CA 2.04066 -24.5302 62.8736
CA -7.38207 -32.8417 67.9152
CA -12.9315 -25.2704 55.3847
CA -11.7343 -27.5725 55.8379
CA -40.4778 -5.20032 68.7949
CA -1.07251 -28.9939 48.8684
CA -5.69214 2.57912 62.8663
CA -36.3537 -10.7992 77.4404
CA 8.49318 -13.3513 54.2338
CA -28.131 -10.4816 69.2084
CA -17.5822 -14.7146 42.9809
CA -6.72605 -9.20964 42.3814
CA -32.3301 -36.5212 60.0731
CA -46.2 -0.904501 57.6197
CA 4.8786 -30.1338 85.3279
CA -17.5482 17.0191 19.4523
CA -9.96644 -5.55371 40.9767
CA -25.7422 -37.0277 63.3818
CA -38.1813 -1.04286 33.6733
CA 0.485253 -27.1381 46.4181
CA -8.512 -21.6423 51.206
CA -11.7063 -22.4258 74.9441
CA -2.24722 -0.385221 58.2931
CA -15.2386 -7.30498 55.1186
CA -8.52224 -26.4188 72.5231
CA -42.8861 -29.1203 52.3291
CA -7.68601 3.78172 58.6998
CA -25.891 -11.4789 64.8041
CA -28.6601 -8.08558 65.5679
CA -12.0058 -13.7734 19.3577
CA -24.4655 -12.4255 51.9314
CA -6.40778 -9.01769 15.6704
CA -37.8874 -3.11787 41.1459
CA -5.67982 -12.603 12.3107
CA -16.4484 -7.55512 42.8979
CA -24.2495 -24.1432 32.8396
CA -22.7483 -21.6085 31.148
CA -5.6265 -10.2823 59.1815
CA -19.1748 -18.9319 64.8232
CA -15.2569 -31.2193 64.5889
CA -42.4521 -30.9261 52.2974
CA -8.29026 -28.4703 36.9357
CA -47.5143 -8.65283 64.1002
CA -0.521241 -7.51969 73.178
CA -11.4499 -12.3162 58.1187
CA -43.2772 -6.12527 67.6983
CA -11.5168 -29.1562 65.1781
CA -13.0259 -24.4922 77.9177
CA -4.80463 -33.781 43.8824
CA -27.929 -9.19265 70.8957
CA -19.4033 -16.1556 44.4656
CA -29.4246 -14.4989 72.5024
CA -36.4264 -23.6768 46.7008
CA -6.68796 -22.2343 42.4167
CA -30.9737 -1.4474 42.4388
CA -38.9458 -31.0368 43.4342
CA -38.2526 -23.6969 47.4317
CA -41.3316 -2.19894 62.5623
CA -15.3235 -3.7895 42.7023
CA -28.6039 -6.97397 67.3834
CA -22.4895 -11.3482 50.4987
CA -6.77862 -3.96108 24.862
CA -16.6974 -5.71127 51.8182
CA -18.0845 -32.1877 59.455
CA -5.62375 -7.5893 68.182
CA -6.97576 -18.9339 40.405
CA -11.8749 -19 52.724
CA -45.9437 -9.8449 67.524
CA -28.1894 -26.7399 48.2872
CA -16.6248 -25.0736 47.334
CA -42.9528 -2.52376 59.0562
CA -15.1376 -11.0766 26.8115
CA 0.0202907 -10.113 58.3544
CA -28.6501 -22.383 67.4411
CA -6.22992 -2.09143 58.8217
CA -10.2089 -18.0726 52.7157
CA -10.7198 13.578 32.3648
CA -37.5729 -5.56616 68.6528
CA -29.367 -27.7198 51.4525
CA -17.7062 -16.2374 72.797
CA -32.0303 -15.8885 50.3181
CA -7.05962 -30.0675 37.8212
CA -34.7245 -23.454 44.9842
CA -47.0664 -5.54164 69.1439
CA -16.2954 -23.332 57.7685
CA -45.1142 -10.4673 70.7373
CA -23.2004 -11.791 72.975
CA 4.59841 -30.9379 77.1377
CA -22.9614 -24.1946 37.0699
CA -14.3625 -3.03569 67.5691
CA -35.3908 -34.0722 56.5475
CA -16.992 -23.0592 33.8221
CA -36.1975 -12.2465 57.0894
CA -15.7547 -19.3177 83.4529
CA -28.5302 -17.6555 79.4519
CA -0.79801 -8.89318 69.6117
CA -2.78113 -18.507 73.5832
CA -35.3269 -2.52599 36.7529
CA -20.2539 1.61651 48.08
CA -13.8919 -17.8938 11.3644
CA -21.3675 -24.6506 57.0104
CA -33.235 -14.3442 59.5332
CA -28.1629 -19.4448 42.869
CA -31.8042 -32.6591 55.9736
CA -20.2097 -15.3032 49.6198
CA -12.2607 12.4899 32.1578
CA -14.2176 -30.4972 75.8137
CA -8.92363 -27.6053 49.8823
CA -3.45158 -10.3597 71.2499
CA -13.2373 -22.8147 36.2688
CA -1.22248 -18.2949 48.8232
CA -6.42598 -9.46479 45.1147
CA -4.06508 -18.6951 49.982
CA -24.6266 -4.82254 46.3072
CA -22.4193 -16.3379 41.151
CA -0.105731 -31.994 51.1093
CA -39.2898 -18.617 54.0887
CA -28.9422 -18.3673 65.0329
CA -13.3462 2.95478 37.0011
CA -8.99267 -38.2082 69.8701
CA 2.7415 -6.49646 64.8209
CA -12.3455 0.996391 36.4111
CA -37.6213 -18.7017 57.5062
CA -35.5983 -12.5974 59.3069
CA -8.01634 -0.715221 60.353
CA -34.037 -9.86518 44.5737
CA -24.3209 2.82408 56.4717
CA -16.3627 -10.0792 44.166
CA -10.0351 -13.2989 18.7771
CA -8.31566 -29.4354 58.2619
CA -1.74761 -27.9169 47.4934
CA -36.744 -16.5329 46.9054
CA -37.2127 -16.0785 50.83
CA -31.6795 -28.2383 53.4421
CA -30.1098 -26.0971 49.0613
CA -4.64769 19.7031 19.1175
CA -15.0906 -35.8883 29.9324
CA -17.3063 -33.6719 54.8196
CA -21.269 -31.0919 54.067
CA -30.4983 -27.3984 69.7851
CA -31.4648 -18.0136 65.1241
CA 5.01221 -26.7087 69.7449
CA -13.6758 -15.9164 32.0857
CA -32.5615 -13.2739 57.5678
CA -33.001 -19.9384 50.2749
CA -41.4251 -13.4261 64.2571
CA -2.85884 -15.3743 70.6708
CA -9.98806 -28.0713 61.4599
CA -43.7702 -15.7644 74.5542
CA -19.1451 -23.8179 60.0477
CA -11.4227 -26.6748 69.0116
CA -13.9759 -29.7715 66.5683
CA -8.5136 -2.65436 33.9164
CA -14.301 -22.2367 76.1665
CA -11.5126 6.33704 37.8998
CA -23.5719 -4.68038 51.8828
CA -18.4188 -6.75111 51.5052
CA -13.5895 -26.7971 31.6567
CA -16.5451 -1.27325 48.4794
CA -34.8623 -4.02779 44.6562
CA -33.909 -25.15 67.091
CA -29.6802 3.43114 45.7472
CA -17.8828 -29.4292 67.7609
CA -10.6836 7.97449 32.0437
CA -46.2562 -15.5832 77.9753
CA -6.45321 -0.809037 32.3209
CA -6.32354 15.9027 21.3454
CA -35.1838 -29.9401 43.2615
CA -4.18965 -27.1082 60.7893
CA -18.1709 -0.261286 55.2831
CA -0.536329 -5.99668 57.8103
CA -39.4593 -5.16037 65.3875
CA -3.42293 -29.3606 69.9633
CA 1.06133 -13.7056 72.3948
CA -6.13155 -10.106 48.3077
CA -35.8653 -21.2768 67.0219
CA -3.26715 -29.7316 57.6574
CA -5.27544 -15.0515 16.4918
CA -7.55538 -29.7819 69.8811
CA -43.1642 -29.9576 50.2585
CA -14.7293 -16.6746 81.2418
CA -26.6575 -36.7641 66.9225
CA -9.09151 -25.3549 33.2429
CA -14.3954 -17.9324 79.7902
CA -40.1411 -14.0194 75.6897
CA -8.79372 -18.3825 43.2344
CA -1.12698 -7.424 67.4142
CA -24.7439 -25.5046 70.0756
CA -15.8239 -18.5285 27.2667
CA -35.5372 -17.8829 58.0499
CA -31.448 -3.7413 31.9444
CA 1.38777 -8.62596 65.0331
CA -45.274 -30.2052 52.6885
CA -15.2902 -34.1297 64.7991
CA -49.5106 -19.4347 79.7878
CA -17.3868 6.76037 49.2849
CA -1.65539 -25.4969 40.3651
CA -22.0378 -1.79086 46.3315
CA -23.0261 -34.3699 49.423
CA -9.88396 7.63545 58.1173
CA -5.33194 -2.26054 54.6283
CA -4.90765 -9.02487 46.0528
CA 3.82087 -5.66707 62.1222
CA -18.5072 -30.3131 49.8873
CA -0.68103 -32.7688 89.2543
CA -6.17916 -19.1587 71.87
CA -15.7248 -31.1603 62.6334
CA -18.0014 -22.5784 86.6753
CA -10.0509 -20.4164 72.916
CA -7.45515 -18.9924 52.1296
CA -12.0984 -14.3945 12.814
CA -9.80363 -17.8419 70.3221
CA -3.67334 -3.32832 67.4203
CA -0.141642 -26.9461 61.4939
CA -22.9544 -3.74348 46.5134
CA -22.0621 -37.2995 47.204
CA -25.664 8.01136 54.8211
CA 2.76036 -16.2977 70.0937
CA -16.3585 -10.3071 53.0191
CA 3.58649 -27.1708 73.8579
CA 2.12865 -20.6725 54.5159
CA -15.4894 -19.0432 30.2838
CA -28.8583 -12.7853 76.0657
CA -25.6241 -10.003 57.3695
CA -6.80515 -17.5844 49.2493
CA 2.05654 -31.3551 88.5737
CA -37.935 -4.54062 62.9933
CA -20.2247 -25.5675 54.1541
CA -32.4654 -16.463 55.6605
CA -44.3717 -16.4593 70.6027
CA -8.86086 -8.73494 45.5402
CA -15.2997 -7.84767 50.3385
CA 0.302349 -4.46402 55.9285
CA -47.9551 -1.60421 59.8109
CA -29.3511 -10.8981 72.6517
CA -30.5709 -29.8556 46.1633
CA -27.3547 -39.3298 68.4009
CA -14.6683 -17.0924 29.0853
CA -16.6945 -3.57047 45.3975
CA -15.4406 -30.8523 31.134
CA -10.6878 -27.8409 39.8296
CA -23.0821 -22.2078 35.217
CA -21.6282 -29.0047 59.5497
CA -27.5836 -37.322 64.7324
CA -28.5408 3.36888 48.7054
CA -29.4948 -31.1399 41.8796
CA -41.549 -19.5088 55.1338
CA -8.66747 -32.6039 61.0159
CA -14.5884 -14.5535 18.371
CA -10.6841 -25.2093 38.3586
CA -4.48373 0.0200009 58.1599
CA -35.7643 -20.6211 45.4867
CA -38.4828 -31.3901 51.491
CA -18.2085 -13.0369 73.4679
CA -38.8812 -21.4959 55.4779
CA 2.34931 -33.3437 77.7603
CA -10.3382 -21.4667 45.2617
CA -16.3211 -15.3568 54.0486
CA -29.9846 -17.2025 75.3216
CA -35.5257 -9.19488 79.7073
CA -23.778 -16.3601 39.5106
CA -37.8101 0.354664 38.2518
CA -11.1714 -12.2541 68.0659
CA -11.2328 12.8209 21.4912
CA -40.1427 -25.6395 51.8783
CA -15.8681 2.51955 59.7247
CA -43.2313 -6.89101 65.6351
CA -23.767 -6.73916 47.6757
CA -18.6394 -22.1657 28.7289
CA -24.7277 4.71534 46.1425
CA -27.8384 -40.6129 63.6991
CA -6.5496 -30.9491 45.5801
CA -24.3337 -25.3621 36.8013
CA -3.72198 -28.8937 73.6917
CA -32.9378 -1.83847 36.6501
CA 5.98487 -13.3835 55.5105
CA -41.3256 -16.2821 70.0944
CA -10.5277 -23.7452 28.827
CA -33.1049 -16.372 57.584
CA -4.82061 -27.7275 46.3163
CA -33.4997 -31.7831 45.8922
CA -9.11734 -27.5972 69.6658
CA 2.75272 -13.4033 59.5288
CA -29.6641 -20.2195 39.2133
CA 0.6689 -2.89943 62.3206
CA -7.03687 -25.8365 70.0455
CA -20.5462 -23.8977 39.3367
CA -30.0168 2.85155 49.7846
CA -20.0936 -11.6716 61.4401
CA -30.9256 -33.1462 42.7654
CA -11.8923 -8.18936 49.2434
CA -9.21415 -3.89723 25.7062
CA -8.69435 -31.3362 56.6848
CA -11.6579 11.3787 28.0511
CA -28.4738 -29.0564 70.0647
CA -20.6903 4.69922 47.2463
CA -11.9316 -33.866 32.055
CA -16.1128 -21.9724 72.0401
CA -16.2098 -21.6779 31.8939
CA -27.646 -43.3811 44.2543
CA -28.9726 -34.2576 49.9733
CA -15.9225 -28.8317 72.8921
CA 1.64209 -8.43357 72.2615
CA -42.8492 -5.72777 69.7975
CA -23.5664 -9.33906 70.3846
CA -35.5555 -26.9327 49.4401
CA -11.2258 2.68033 51.8373
CA -30.9667 -30.8318 69.1984
CA -15.8393 -15.832 22.3727
CA -26.0375 -34.3072 51.0528
CA -30.6317 -11.4775 43.1174
CA -26.2257 -14.4573 53.8289
CA -35.7684 -23.7166 38.1648
CA 5.46602 -18.3945 73.544
CA -27.4888 -0.839715 40.982
CA -31.0579 -1.77556 44.6787
CA -15.7044 -19.9227 79.521
CA -9.01706 -8.58984 23.1212
CA -5.99569 -1.51367 34.6789
CA -8.19715 -12.235 21.0278
CA -19.4924 -8.35136 51.2056
CA -25.3608 -1.1815 38.7377
CA -20.1309 -23.4677 71.2778
CA -27.0463 -28.0026 52.4908
CA -40.3572 -14.3057 65.8139
CA -15.6078 -22.8163 9.65084
CA -32.143 -33.2791 46.6241
CA -33.4712 -8.11956 47.0423
CA -11.2679 -10.0396 57.9216
CA -32.8847 -15.1536 70.2095
CA -29.1071 -36.3124 62.0919
CA -3.30908 -11.8209 55.7235
CA 3.12354 -27.621 68.5366
CA 0.521598 -22.6681 57.6097
CA -16.6212 -17.8268 82.3951
CA -30.0277 -13.4357 68.2586
CA -13.3342 -25.9797 37.3333
CA -20.522 -29.1952 48.538
CA -12.4052 -16.3807 59.844
CA -27.2375 -22.7102 71.5479
CA -17.0833 0.917586 46.0872
CA -5.75667 -31.2889 59.0134
CA -10.8472 -0.96172 38.5091
CA -35.8926 -20.9372 42.7703
CA -16.0071 -19.2248 62.8248
CA -15.1736 -15.213 24.9505
CA -2.73275 -5.35735 72.2065
CA -26.9897 -40.0589 71.3521
CA 1.17957 -9.43056 70.0338
CA -27.6146 -30.7598 51.2874
CA -11.9495 -17.852 29.4844
CA -16.4947 -13.5236 41.6056
CA -25.8625 -10.8053 71.8033
CA -7.90493 -6.07047 65.3921
CA -15.3738 -16.4345 39.8468
CA -31.7454 -35.0376 47.1477
CA -26.9343 -17.5316 80.5672
CA -18.3487 -22.7075 37.6675
CA -23.1751 -10.6435 52.0239
CA -15.0822 -3.10827 60.2832
CA -35.0301 -17.1587 69.1414
CA -16.6013 -16.3147 71.2784
CA -25.6323 1.07777 53.9675
CA -20.3194 0.134169 56.7652
CA -32.8498 -33.6324 42.6667
CA -23.8751 -41.0876 47.2511
CA -24.1118 -14.6857 57.8492
CA -6.08622 -9.98326 50.2752
CA -42.256 -3.14914 60.9233
CA -33.4258 -5.50231 39.9393
CA -32.1983 -31.3744 44.662
CA -43.8674 -5.17182 57.1745
CA -5.27061 -27.6165 38.6396
CA -33.6608 -25.4704 71.7117
CA -44.6618 -20.8687 54.8879
CA -13.3541 -24.0522 32.1389
CA -30.5407 -17.963 49.2787
CA -24.7682 -30.0021 69.0315
CA -32.5253 -29.2225 48.3932
CA -18.0322 -13.6569 57.325
CA -32.5125 0.533503 38.1125
CA -31.756 -26.0326 65.2235
CA -27.7566 -39.5439 46.5817
CA -13.2509 -18.9732 75.3376
CA -11.4928 -6.10035 44.6496
CA -32.8896 -21.0537 42.3764
CA -33.2856 -16.9824 69.6629
CA -3.5016 -29.2282 47.8409
CA -11.4823 -10.9999 59.4785
CA -14.606 -18.1782 71.2019
CA -37.714 -11.1947 75.9263
CA -10.1525 -29.1283 59.6499
CA 5.16934 -28.8778 81.7093
CA -13.9024 -1.11877 63.5316
CA 0.256776 -14.0794 54.2018
CA -34.3051 -19.7114 59.9186
CA -6.36261 -0.424696 59.6567
CA -22.9393 -32.5277 53.9653
CA -7.74841 -8.39992 71.2604
CA -20.9785 3.2434 45.848
CA -27.3009 -33.8631 65.3403
CA -0.898145 -21.955 48.88
CA -6.28607 -31.795 69.3646
CA -13.0776 -23.9921 57.6891
CA -20.3509 -16.2797 21.0206
CA -16.9867 -26.8382 76.3321
CA -35.3384 -12.8978 66.1429
CA -18.7226 -15.1604 52.2456
CA 4.26638 -9.57149 57.9509
CA -38.1708 -7.2762 77.8271
CA -27.6437 -22.1204 47.3094
CA -15.6522 -12.9343 14.5493
CA -6.98589 -35.5376 67.6371
CA -13.6619 14.2424 27.6142
CA -23.8163 -15.5836 64.6458
CA -30.5098 -3.67876 46.1035
CA -10.8662 -17.774 72.4409
CA -40.5925 -10.8609 79.4349
CA -5.08413 -21.2642 70.3485
CA -9.05476 -9.39338 75.0593
CA -15.2726 -25.3148 30.005
CA -0.488814 -12.6993 55.1372
CA -2.4534 -1.8189 33.3944
CA -11.4479 -24.703 58.1653
CA -8.01934 -19.7604 44.5881
CA -9.81442 -9.57565 71.1709
CA -27.0508 -9.35375 52.2362
CA -22.0302 -24.4091 33.9058
CA -7.4976 -30.334 43.2199
CA -2.46487 -17.9076 44.2499
CA -39.7224 -21.1311 39.6648
CA -33.7206 -36.9829 58.7523
CA -6.36363 -28.8725 51.0159
CA -6.46462 -19.9459 49.5069
CA 6.39919 -26.361 67.5437
CA -10.4753 -14.7441 25.211
CA -19.6085 -18.1526 74.068
CA -24.0842 -14.2291 60.3885
CA -38.6414 -22.7815 53.4098
CA -39.8668 -7.94086 81.4225
CA -8.68771 -5.63291 19.8807
CA -12.7437 -13.0044 82.0016
