489

CA -15.346 -19.4311 68.2835
CA -50.3976 -19.8727 77.459
CA -4.75826 -25.5303 39.6143
CA -40.266 -16.4316 75.1354
CA -34.7914 -28.7717 56.0976
CA -18.9698 -19.6728 33.763
CA -21.8033 0.855457 50.281
CA -33.9251 1.16026 35.5198
CA -3.77618 -5.69719 47.2497
CA -46.8406 -17.2619 70.6291
CA -31.5288 -30.2662 66.1566
CA 0.974482 -16.8157 62.0175
CA -29.8607 -36.8072 59.5994
CA -8.78683 -32.6678 58.7965
CA -7.1344 -3.92178 34.1664
CA -8.28092 -24.846 71.5143
CA -13.793 -19.2411 36.0877
CA -25.9752 1.29148 44.8425
CA -36.9877 -23.9613 49.3764
CA 0.276938 -16.037 65.9352
CA 2.77082 -14.8466 58.4242
CA -16.7189 2.57767 55.1241
CA -44.796 -7.97226 72.1428
CA -32.9076 -24.3369 73.2237
CA -28.925 5.68415 46.5474
CA -41.6192 -11.7661 65.2686
CA -37.6027 -19.8936 71.9215
CA -3.14709 -20.6696 47.2849
CA -13.9117 -0.821627 68.4848
CA -11.0117 0.466177 61.0803
CA -48.1422 -18.2074 68.9754
CA -19.3828 -18.6589 71.1985
CA -11.709 3.51606 34.4399
CA -16.1077 13.3876 23.3381
CA -6.09091 -22.7051 51.5797
CA -12.2737 14.4101 30.2136
CA -6.9486 -23.0588 42.9767
CA -12.593 -33.4153 33.8518
CA -5.20936 -25.7804 71.124
CA -31.5563 -16.8866 60.9682
CA -6.7148 -32.598 50.7499
CA -31.9428 -27.3974 47.3804
CA -16.4245 -30.9058 33.8733
CA -15.346 -18.3431 76.1229
CA 5.48318 -23.8578 71.6095
CA -14.1921 -10.252 53.3399
CA -31.9905 -15.2772 47.9785
CA -30.0639 -24.1797 46.6787
CA -27.2496 -37.0503 46.6362
CA -12.9315 -25.2704 55.3847
CA -18.5825 -33.7059 33.3236
CA -15.9015 -22.0758 36.1401
CA -1.07251 -28.9939 48.8684
CA -5.69214 2.57912 62.8663
CA -41.4265 -19.7013 71.4951
CA 8.49318 -13.3513 54.2338
CA -13.2048 -14.7462 72.6522
CA -3.79626 4.59807 57.3027
CA -6.72605 -9.20964 42.3814
CA -32.3301 -36.5212 60.0731
CA -51.4795 -4.24057 71.1724
CA 4.8786 -30.1338 85.3279
CA -21.9617 -34.4408 45.187
CA -16.2173 -13.9388 77.192
CA -25.7422 -37.0277 63.3818
CA -35.9326 -34.1304 60.7843
CA -14.7235 -13.7283 10.8349
CA 0.641206 -25.8177 63.2404
CA -18.8849 -23.2224 74.4653
CA -2.24722 -0.385221 58.2931
CA -41.6388 -19.7587 51.8825
CA -8.52224 -26.4188 72.5231
CA -42.8861 -29.1203 52.3291
CA -22.3076 -31.2963 61.577
CA -26.5801 -44.853 63.7398
CA -7.52749 -25.8951 65.1524
CA -12.0058 -13.7734 19.3577
CA -24.4655 -12.4255 51.9314
CA -6.40778 -9.01769 15.6704
CA -17.3412 -33.2813 52.7555
CA -9.93287 -23.5662 71.4358
CA -16.4484 -7.55512 42.8979
CA -15.8232 -19.6508 50.1253
CA -22.7483 -21.6085 31.148
CA -2.14269 -25.6148 55.8901
CA -25.4598 -33.2136 42.7394
CA -26.4238 -20.706 65.7549
CA -18.5149 -35.5002 51.5859
CA -18.7549 0.12897 37.906
CA -16.6981 -29.4569 30.5722
CA -11.6686 6.68015 50.75
CA -9.76777 -34.0584 57.5965
CA -43.2772 -6.12527 67.6983
CA -11.5168 -29.1562 65.1781
CA -35.1017 -35.5075 54.6084
CA 1.68672 -33.1961 84.8168
CA -27.929 -9.19265 70.8957
CA -19.4033 -16.1556 44.4656
CA -30.9236 -30.1547 64.4601
CA -4.6376 -18.6904 52.0238
CA -37.963 -23.0691 50.9816
CA -30.9737 -1.4474 42.4388
CA -9.96961 7.07695 50.0696
CA -38.2526 -23.6969 47.4317
CA -29.4477 -22.2869 48.7238
CA -13.5815 -13.7223 27.8393
CA -5.84198 1.88601 57.5397
CA -29.8385 -5.38208 36.9861
CA -24.7621 -17.5842 59.6532
CA -16.6974 -5.71127 51.8182
CA -18.0845 -32.1877 59.455
CA -32.5014 -20.1703 60.3226
CA -24.6512 -28.2625 51.5909
CA -11.8749 -19 52.724
CA -45.9437 -9.8449 67.524
CA -13.2546 -26.2397 71.3665
CA -10.5544 2.20012 61.4805
CA -30.5719 -0.971927 38.5724
CA -15.1376 -11.0766 26.8115
CA -36.8427 -20.5759 70.3845
CA 0.76058 -13.6842 67.3803
CA -6.22992 -2.09143 58.8217
CA -6.83351 -15.2617 71.0713
CA -5.02052 -16.8896 40.4329
CA -15.083 -12.7129 50.4474
CA -21.5429 -12.6854 64.0972
CA -47.2747 -6.2089 69.3275
CA -32.0303 -15.8885 50.3181
CA -25.2685 -18.1705 66.7768
CA -33.1643 -17.0799 45.734
CA -13.5454 -27.0791 44.0153
CA -16.2954 -23.332 57.7685
CA -22.6623 1.12961 52.4351
CA -23.2004 -11.791 72.975
CA 4.59841 -30.9379 77.1377
CA -22.9614 -24.1946 37.0699
CA -7.92069 -13.3281 15.3242
CA -35.3908 -34.0722 56.5475
CA -16.992 -23.0592 33.8221
CA -42.6327 -3.0766 64.7694
CA -43.3967 -36.7212 47.2947
CA -28.5302 -17.6555 79.4519
CA -32.3333 -41.0836 56.4871
CA -9.44951 -33.2034 38.1834
CA -7.35701 -28.8883 39.6177
CA -20.2539 1.61651 48.08
CA -13.8919 -17.8938 11.3644
CA -21.3675 -24.6506 57.0104
CA -33.235 -14.3442 59.5332
CA 2.92528 -16.7625 47.0647
CA -40.7542 -19.492 81.7904
CA -9.8831 4.94782 60.8774
CA -12.2607 12.4899 32.1578
CA -15.8578 -15.6749 76.1703
CA -15.8552 4.39305 55.2125
CA -3.45158 -10.3597 71.2499
CA -17.416 -21.4177 56.1623
CA -1.22248 -18.2949 48.8232
CA -6.42598 -9.46479 45.1147
CA -28.1132 -12.0702 78.8214
CA -12.0633 -1.36028 42.8923
CA -22.4193 -16.3379 41.151
CA -18.7775 -12.6998 62.7796
CA -39.2898 -18.617 54.0887
CA -28.9422 -18.3673 65.0329
CA -13.3462 2.95478 37.0011
CA -17.3949 -32.0995 40.6151
CA -15.2556 -19.447 85.4995
CA -23.914 -13.7865 53.9855
CA -45.8081 -9.13267 74.2444
CA -33.0173 -30.2568 71.0067
CA -31.2974 -21.1735 49.1153
CA -34.037 -9.86518 44.5737
CA -24.3209 2.82408 56.4717
CA -16.3627 -10.0792 44.166
CA -10.0351 -13.2989 18.7771
CA -8.31566 -29.4354 58.2619
CA -1.74761 -27.9169 47.4934
CA -36.744 -16.5329 46.9054
CA -17.4015 3.52907 50.2258
CA -31.6795 -28.2383 53.4421
CA -19.164 -20.4641 78.4213
CA -4.64769 19.7031 19.1175
CA -15.0906 -35.8883 29.9324
CA -17.3063 -33.6719 54.8196
CA -21.269 -31.0919 54.067
CA -35.7958 -35.3932 39.8863
CA -31.4648 -18.0136 65.1241
CA -1.55305 -30.9246 48.7871
CA -29.3802 -24.1441 64.6137
CA -32.5615 -13.2739 57.5678
CA -33.001 -19.9384 50.2749
CA -41.4251 -13.4261 64.2571
CA -31.6375 -40.6826 61.3306
CA -9.98806 -28.0713 61.4599
CA 4.40076 -18.8209 51.2353
CA -19.1451 -23.8179 60.0477
CA -18.8008 -9.31738 61.7191
CA -17.2991 -13.2735 31.5423
CA -8.5136 -2.65436 33.9164
CA -23.2729 -39.5209 64.4155
CA -21.2308 -30.8813 69.2299
CA -23.5719 -4.68038 51.8828
CA -51.7765 -16.7795 80.0618
CA -5.80774 -29.3931 76.2453
CA -36.8426 -21.9857 59.1995
CA -35.6096 -23.6698 40.7413
CA -24.9305 -30.1545 52.9379
CA -3.2655 -18.7533 48.791
CA -17.8828 -29.4292 67.7609
CA -10.6836 7.97449 32.0437
CA -46.2562 -15.5832 77.9753
CA -18.8995 -3.43204 48.4573
CA -6.32354 15.9027 21.3454
CA -11.6711 -35.7843 35.1511
CA -4.18965 -27.1082 60.7893
CA 3.44794 -8.45516 67.6618
CA -16.3809 9.16414 53.0203
CA -19.9003 -14.6766 24.2006
CA -23.6699 -14.4801 42.8969
CA -10.4032 -23.8997 50.2961
CA -6.13155 -10.106 48.3077
CA -33.4756 -16.0114 76.9544
CA -31.8712 -29.9652 44.0308
CA -5.27544 -15.0515 16.4918
CA -7.55538 -29.7819 69.8811
CA -35.3751 -12.8107 79.7769
CA -34.6039 -28.6374 71.1654
CA -48.4595 -19.5211 72.0474
CA -15.2599 -21.0369 63.0087
CA -37.7255 -11.3452 67.5793
CA -40.7523 -12.4967 77.021
CA -8.79372 -18.3825 43.2344
CA -1.12698 -7.424 67.4142
CA -20.7153 -32.3149 42.0627
CA -12.0858 -23.8982 43.5507
CA -35.5372 -17.8829 58.0499
CA -31.448 -3.7413 31.9444
CA -39.892 -21.1479 81.55
CA -45.274 -30.2052 52.6885
CA -15.2902 -34.1297 64.7991
CA -49.5106 -19.4347 79.7878
CA -17.3868 6.76037 49.2849
CA -12.9086 -26.6417 47.569
CA -34.407 -11.7195 59.6391
CA -23.0261 -34.3699 49.423
CA -15.0058 2.2087 41.0842
CA 2.03918 -22.7716 45.41
CA -4.90765 -9.02487 46.0528
CA 3.82087 -5.66707 62.1222
CA -18.5072 -30.3131 49.8873
CA -10.132 -11.9435 21.5648
CA -6.17916 -19.1587 71.87
CA -15.7248 -31.1603 62.6334
CA -13.2227 -21.7946 62.0921
CA -20.1093 -1.86114 42.2216
CA -7.45515 -18.9924 52.1296
CA -12.0984 -14.3945 12.814
CA -29.642 -15.0309 73.0647
CA -3.67334 -3.32832 67.4203
CA -27.5631 -22.7874 66.3937
CA -38.5215 -33.1513 57.7239
CA -42.8566 -34.7449 50.9199
CA -25.664 8.01136 54.8211
CA 2.76036 -16.2977 70.0937
CA -16.3585 -10.3071 53.0191
CA 3.58649 -27.1708 73.8579
CA -15.8656 -22.2582 73.8983
CA -15.4894 -19.0432 30.2838
CA -28.8583 -12.7853 76.0657
CA -25.4639 -39.5701 64.0255
CA -23.7279 -25.663 49.4585
CA -6.03003 -11.1218 73.5428
CA -13.4608 -37.7747 32.648
CA -15.4173 -16.1352 33.754
CA -21.4653 -29.2138 50.9259
CA -36.5408 -13.2397 48.3776
CA -8.86086 -8.73494 45.5402
CA -4.00868 -23.7934 68.2972
CA -20.193 -35.9174 73.6501
CA -22.362 -10.6963 69.3218
CA -15.7038 -27.2912 41.2297
CA -30.5709 -29.8556 46.1633
CA -27.3547 -39.3298 68.4009
CA -10.7416 -31.686 69.439
CA -18.4407 -34.7594 62.3117
CA -15.4406 -30.8523 31.134
CA -10.6878 -27.8409 39.8296
CA -12.5377 2.35365 42.6021
CA -14.3494 -16.0245 71.7844
CA -44.759 -17.3978 80.2356
CA -28.5408 3.36888 48.7054
CA -17.5484 -28.9368 59.6397
CA -41.549 -19.5088 55.1338
CA -8.66747 -32.6039 61.0159
CA -14.5884 -14.5535 18.371
CA -10.6841 -25.2093 38.3586
CA -25.8046 -0.174755 51.8308
CA -13.9856 -6.73582 46.1595
CA 1.82548 -22.8464 52.6965
CA -15.9769 4.36405 48.3145
CA -33.7556 -37.7784 60.9659
CA -22.3244 -21.8547 38.3297
CA -8.07875 9.2203 47.0119
CA -26.1872 2.33901 55.1883
CA -29.9846 -17.2025 75.3216
CA 3.61516 -17.5943 49.8076
CA 6.68459 -19.4826 75.0831
CA -37.8101 0.354664 38.2518
CA -26.4942 -37.4015 49.9104
CA -11.2328 12.8209 21.4912
CA -40.1427 -25.6395 51.8783
CA -11.5375 -17.5852 9.42766
CA -14.9281 -25.748 67.8476
CA -23.767 -6.73916 47.6757
CA -18.6394 -22.1657 28.7289
CA -35.2663 -8.72444 41.0042
CA -48.4122 -5.47349 72.3609
CA -10.3875 -29.0823 77.5526
CA -24.0536 -19.6643 43.0831
CA -3.72198 -28.8937 73.6917
CA -41.7868 -18.2218 77.5107
CA 5.98487 -13.3835 55.5105
CA -17.4922 -18.5525 77.2966
CA -10.5277 -23.7452 28.827
CA -37.4338 -20.7885 41.665
CA -19.0016 -9.70534 44.1363
CA -10.3001 -13.455 68.3546
CA -2.50767 -14.2763 58.606
CA -17.1648 -11.8873 62.1468
CA -12.9852 -24.831 63.8652
CA -15.5795 -9.59554 55.4726
CA -4.93742 -28.3926 52.8072
CA -20.5462 -23.8977 39.3367
CA -30.0168 2.85155 49.7846
CA -20.0936 -11.6716 61.4401
CA -28.6745 -17.8747 48.326
CA -3.65655 -15.3867 14.1879
CA -13.4665 -30.1189 31.127
CA -8.69435 -31.3362 56.6848
CA -3.19836 -29.8357 39.8982
CA -17.8498 -16.7756 53.3418
CA -20.6903 4.69922 47.2463
CA -29.3026 -28.2166 47.9791
CA 3.8336 -8.10808 69.9159
CA -16.2098 -21.6779 31.8939
CA -27.646 -43.3811 44.2543
CA -37.1278 -6.81266 67.1126
CA 4.85291 -7.16415 63.2202
CA -8.41345 -11.894 46.5137
CA -24.3342 8.5669 52.0708
CA -20.5598 -9.3274 65.6478
CA -24.1142 -20.4925 73.9457
CA -41.9989 -21.0086 57.995
CA -30.9667 -30.8318 69.1984
CA -26.0742 -30.952 49.3197
CA -18.394 -17.1081 60.4716
CA -15.3214 -27.2015 27.8679
CA -11.3924 -6.24844 61.2531
CA -20.6836 -3.18124 52.9135
CA 5.46602 -18.3945 73.544
CA -27.4888 -0.839715 40.982
CA -7.55619 -3.75669 56.1785
CA -26.0763 -13.8255 77.0522
CA -30.0618 -44.0462 59.2098
CA -1.87869 7.51746 55.0929
CA -8.19715 -12.235 21.0278
CA -19.4924 -8.35136 51.2056
CA -25.3608 -1.1815 38.7377
CA -20.1309 -23.4677 71.2778
CA -16.131 -13.5693 23.5728
CA -32.694 -18.7946 57.7223
CA -15.6078 -22.8163 9.65084
CA -46.7262 -11.6378 65.523
CA -20.7442 -33.7627 56.7903
CA -11.2679 -10.0396 57.9216
CA -32.8847 -15.1536 70.2095
CA 2.24082 -12.7041 65.7995
CA -28.686 -28.2721 69.6219
CA -14.8617 -37.481 34.0381
CA -5.47777 -23.4296 41.2435
CA -16.6212 -17.8268 82.3951
CA -30.0277 -13.4357 68.2586
CA -19.2862 -34.3002 59.3135
CA 2.93755 -17.0557 59.7064
CA -11.3535 -32.8745 67.7384
CA -25.5627 -37.8455 61.5141
CA -13.8937 -1.82555 38.4351
CA -5.75667 -31.2889 59.0134
CA -10.8472 -0.96172 38.5091
CA -4.69095 -30.3419 49.4262
CA -16.0071 -19.2248 62.8248
CA -29.0066 -1.74869 45.3866
CA -27.1665 3.56834 43.7872
CA -26.9897 -40.0589 71.3521
CA 1.17957 -9.43056 70.0338
CA -48.8462 -10.3584 68.1853
CA -2.77065 -16.3963 72.6223
CA -16.4947 -13.5236 41.6056
CA -25.8625 -10.8053 71.8033
CA -29.7347 -34.6501 67.4282
CA -24.3208 -2.7708 43.5794
CA -24.7778 -12.4902 72.3872
CA -18.2159 -40.4186 73.3155
CA -31.6121 -37.235 62.5267
CA -23.1751 -10.6435 52.0239
CA -46.669 -8.65439 65.9548
CA -35.0301 -17.1587 69.1414
CA -16.6013 -16.3147 71.2784
CA -32.25 -21.1772 47.4014
CA -18.5163 -35.0785 69.1047
CA -32.8498 -33.6324 42.6667
CA -23.8751 -41.0876 47.2511
CA -24.1118 -14.6857 57.8492
CA -6.08622 -9.98326 50.2752
CA -42.256 -3.14914 60.9233
CA -23.1908 -20.0376 40.5941
CA -39.4422 -7.39824 66.7204
CA -43.8674 -5.17182 57.1745
CA -31.5422 -14.8414 59.1273
CA -7.15698 -29.9193 77.5703
CA -44.6618 -20.8687 54.8879
CA -13.3541 -24.0522 32.1389
CA -30.5407 -17.963 49.2787
CA -17.1631 -15.0105 79.6284
CA -15.8216 -16.1497 24.9328
CA -18.0322 -13.6569 57.325
CA -4.42105 -11.7057 17.5983
CA -33.8659 -30.7492 57.2496
CA -27.7566 -39.5439 46.5817
CA -16.4993 -28.3662 38.7971
CA -11.4928 -6.10035 44.6496
CA -32.8896 -21.0537 42.3764
CA -33.2856 -16.9824 69.6629
CA -3.5016 -29.2282 47.8409
CA -26.7093 -23.2074 39.27
CA -4.03873 -1.74736 57.4922
CA -37.714 -11.1947 75.9263
CA -10.1525 -29.1283 59.6499
CA 5.16934 -28.8778 81.7093
CA -13.9024 -1.11877 63.5316
CA 0.256776 -14.0794 54.2018
CA -34.3051 -19.7114 59.9186
CA -34.368 -22.4802 71.1179
CA -0.254918 -12.3378 66.49
CA -24.9071 -18.0048 28.302
CA -14.9818 -23.4077 69.1283
CA -32.2651 2.63427 43.3807
CA -0.898145 -21.955 48.88
CA -10.512 -4.79696 57.1315
CA -6.61886 -26.7484 40.9271
CA -34.07 -11.0972 55.6362
CA -16.9867 -26.8382 76.3321
CA -35.3384 -12.8978 66.1429
CA -21.6295 -12.1189 59.7438
CA -1.20937 -27.8332 56.6772
CA -14.6374 -11.8467 57.3302
CA -24.7312 -21.6579 42.3541
CA -15.6522 -12.9343 14.5493
CA -6.98589 -35.5376 67.6371
CA -13.6619 14.2424 27.6142
CA -23.8163 -15.5836 64.6458
CA -3.33416 -7.27069 44.3077
CA -17.1588 -28.1299 47.0204
CA -25.9767 -13.1749 63.7483
CA -5.08413 -21.2642 70.3485
CA -33.0372 -27.4853 68.7499
CA -23.7242 -18.7313 30.7371
CA -0.488814 -12.6993 55.1372
CA -5.34903 -31.924 70.9722
CA -33.9245 -32.619 54.0662
CA -32.5991 -31.9724 57.7519
CA -12.7889 -16.4176 79.605
CA 0.530116 -16.3599 57.969
CA -36.6791 0.0462392 36.0242
CA -3.80636 -18.4649 70.1842
CA -13.9969 -29.0631 38.919
CA -46.6784 -10.9257 70.2203
CA -33.7206 -36.9829 58.7523
CA -6.36363 -28.8725 51.0159
CA -4.36364 -28.762 34.4773
CA -17.5545 -29.306 72.4246
CA -10.4753 -14.7441 25.211
CA -9.81084 -31.1217 38.0674
CA -30.8073 -24.6409 41.5269
CA -13.5354 -31.8852 35.101
CA -33.758 -25.0117 37.7814
CA -16.9394 -18.7037 72.3538
CA -12.7437 -13.0044 82.0016
