489

CA 7.279 -3.89648 26.9365
CA 9.20513 -18.0767 77.0784
CA 6.71329 -15.5602 34.6563
CA -4.36561 -19.8276 62.693
CA -19.9946 -10.6344 52.3101
CA -1.64114 7.92558 41.7728
CA 5.53289 17.0563 45.356
CA -8.99529 1.74783 50.3683
CA 8.76996 -15.9303 75.3635
CA -16.16 4.5791 36.4261
CA 2.79998 14.2349 25.6143
CA -21.6544 -5.17431 25.7694
CA -3.51492 -38.0065 67.3735
CA -3.10934 -34.1233 62.9768
CA 5.44729 -30.1171 43.308
CA -4.99323 10.2157 87.3702
CA -22.3792 -10.0415 47.0443
CA 13.0766 2.65403 22.5844
CA -4.67592 -19.2093 60.554
CA -2.44207 8.7596 39.0627
CA -12.8313 -6.90708 46.6427
CA -1.58758 16.3878 46.5806
CA 7.22504 12.6001 37.3019
CA 35.8205 12.391 38.734
CA -3.40362 -26.1296 67.9707
CA -10.5801 -6.78812 32.0925
CA 10.4539 26.7722 44.1717
CA -18.7716 -12.9222 17.2492
CA -4.00481 -7.10391 24.4458
CA -8.94195 -28.0418 45.4997
CA -10.5346 -31.6628 52.2883
CA -22.3489 -15.4334 38.9343
CA -10.6055 -8.66128 22.6584
CA -8.66412 -23.672 26.6598
CA -0.60531 10.5487 29.5982
CA 4.07597 8.72715 46.0931
CA -2.17678 2.88554 72.5017
CA -0.638559 18.5356 49.7523
CA 10.0003 14.0351 34.039
CA -12.0356 1.90634 54.1798
CA -4.36213 -23.7262 40.6174
CA 27.244 12.2788 84.9951
CA -6.16957 10.3901 51.7433
CA -12.1807 -11.7307 17.5997
CA -15.7331 -13.1192 21.2286
CA 6.30824 -19.3576 73.1589
CA -3.3217 -31.8974 64.3693
CA -5.16903 -30.3237 49.238
CA -10.171 -2.84093 23.1414
CA 12.5666 -11.4562 74.5359
CA 7.96093 6.18669 31.2846
CA -14.0651 -31.3654 52.1062
CA -2.71201 -22.247 42.2209
CA 4.02581 15.5654 49.2455
CA -12.0064 -26.1319 55.6259
CA -0.908336 12.8354 74.95
CA -13.7863 -19.007 54.146
CA -21.4539 -13.7119 47.9716
CA 3.78616 17.528 63.4163
CA -19.8112 0.738645 29.3918
CA 7.13157 9.0115 73.7945
CA -13.8795 -4.83422 20.3729
CA -6.22849 -6.70632 25.6335
CA 1.39161 8.72461 46.915
CA 0.388355 9.64211 77.6692
CA -9.41443 -28.9233 43.6692
CA -5.50964 -25.8872 23.7169
CA -17.3712 -7.20664 42.6056
CA -3.65029 -26.1875 61.4928
CA -20.6668 -12.2006 14.5914
CA -1.25586 10.1749 46.678
CA 8.59973 10.5583 74.7051
CA -24.2371 -11.9561 46.323
CA 1.32768 -36.8247 75.3995
CA -9.82369 -24.5099 27.8917
CA -3.12343 -14.308 26.3207
CA -0.229769 13.2531 77.3771
CA -14.2823 16.8707 77.3746
CA -2.0914 -14.6188 59.4439
CA -3.94799 -29.4372 68.2912
CA -6.99447 5.72995 68.4298
CA -5.38454 -16.331 24.1999
CA -17.7197 -19.2875 43.8839
CA -1.29182 -32.1148 56.0592
CA 1.64715 -22.8022 39.1712
CA -17.4738 9.13821 26.4688
CA -20.0547 11.1935 43.7824
CA -3.80927 13.1556 90.6985
CA 4.21518 10.5264 34.4128
CA 6.78376 -1.42692 28.248
CA -17.0952 -19.5545 52.6237
CA -3.06781 10.6584 86.9669
CA -12.2399 -7.46278 19.3978
CA 2.7279 -24.6941 42.2677
CA 41.6564 -17.2211 38.4988
CA -18.0367 5.67684 52.7426
CA 0.286262 14.8909 49.9373
CA -17.7657 16.1819 77.6211
CA -5.71891 -30.6127 54.4424
CA 10.8843 9.60114 76.0325
CA -18.9775 2.69836 46.7925
CA -11.9056 -42.7792 62.0404
CA -0.365325 -43.3095 58.5483
CA -1.8899 -22.7705 66.9579
CA -15.8672 -17.9649 52.8537
CA -3.19457 -6.26724 15.4094
CA -8.29135 13.4989 46.6788
CA -3.84744 -30.7105 60.7705
CA -7.43204 -25.9853 23.639
CA -1.18986 10.6486 40.0113
CA 6.41783 23.1196 43.4401
CA 8.24036 8.99194 70.649
CA -4.08704 21.3831 52.8296
CA -12.261 13.8522 84.2337
CA -19.4665 -7.51896 51.4584
CA -1.92294 13.2682 83.6303
CA 2.01302 15.1265 37.3546
CA -0.517061 8.24224 44.868
CA 16.8657 4.62485 27.5209
CA -20.966 -30.8447 22.8211
CA -20.356 -9.49024 45.6565
CA -15.2049 -16.4518 53.5975
CA -22.9637 -12.3587 18.0144
CA -16.3755 -36.2114 47.5187
CA 5.94466 -16.3454 69.0975
CA -15.0957 -4.07478 17.6854
CA 1.46628 -19.2142 32.2636
CA 10.6647 -1.04856 49.8869
CA -5.45347 -5.22332 24.0218
CA -11.0982 -14.5441 19.724
CA -11.1086 15.5274 66.9612
CA 8.03252 -23.054 79.5034
CA 3.79617 -19.072 67.0258
CA -12.8007 -29.1744 54.8541
CA 3.06124 -31.9833 57.3459
CA -6.23402 -30.101 65.1454
CA -7.63177 -9.96048 24.3012
CA -6.92221 -19.9466 58.8699
CA 26.9232 -28.8103 32.7719
CA -2.46194 -21.8516 65.0174
CA 24.5921 -26.0658 34.3488
CA -3.46724 -31.4382 46.1381
CA 4.23367 -3.15932 23.1754
CA -17.4784 -38.6496 50.2261
CA -0.476867 -23.2047 43.1597
CA -17.8805 -9.5866 49.2026
CA -17.8847 -5.22318 51.5394
CA -3.80643 -14.5031 29.2379
CA -19.9195 1.41848 24.437
CA 0.834706 -37.8436 79.67
CA 14.6925 22.2572 44.7623
CA 7.98435 19.2215 60.2776
CA -11.9681 -7.76956 21.175
CA 39.5951 -15.715 32.7455
CA -18.3025 -13.8299 47.2447
CA -14.399 -12.8742 22.4724
CA -6.43565 18.1738 73.5039
CA 1.82372 -24.1325 40.5395
CA -11.3872 15.3406 42.6906
CA -14.4381 -31.5855 34.1963
CA 30.2842 18.4505 55.8018
CA -15.0005 -14.3622 27.4149
CA -5.75608 -29.6055 51.9862
CA -7.02617 -14.8769 21.0075
CA -8.09195 -27.1144 25.9543
CA -8.78585 11.069 66.8395
CA -18.385 -4.4162 25.6221
CA 20.5333 -18.6982 39.0592
CA -5.56944 -13.5335 22.9002
CA -19.1985 -19.7205 53.8444
CA -11.361 -13.2097 44.0303
CA -9.61953 -42.1032 64.0591
CA 5.53158 5.08052 53.6234
CA -2.81837 -34.3428 64.9853
CA -11.4912 -20.2705 26.2989
CA -12.5307 -23.2491 29.6511
CA -9.72006 11.2306 50.8573
CA -16.4055 -20.1074 49.2858
CA 1.19863 13.3276 81.6168
CA 0.640746 -19.6799 34.4948
CA -3.15693 15.3361 47.5196
CA -16.6813 -14.9299 25.944
CA 3.70389 15.9419 26.9867
CA 3.55466 -27.2361 41.941
CA -19.1259 -22.9029 61.235
CA 2.63338 -20.7304 40.4915
CA -17.4098 5.92467 28.0037
CA -14.1633 -38.5849 46.362
CA -6.52521 14.684 72.7655
CA -0.903442 7.71038 39.7255
CA 8.19311 32.7227 48.8762
CA -18.6029 -16.5599 37.2945
CA 3.96937 -26.6959 40.1714
CA 7.00198 -18.612 34.9059
CA 26.222 14.4991 88.9894
CA -12.2567 -21.982 32.3585
CA 31.9231 14.4209 88.4695
CA -14.9491 5.48146 28.6003
CA -18.5185 -7.73361 45.059
CA 31.5315 10.4205 91.5068
CA 6.00792 -13.7302 33.8662
CA -16.6172 -7.6889 48.2046
CA 3.35192 -35.4358 75.1004
CA 34.9488 11.4375 37.4121
CA -29.638 -9.21997 24.8347
CA -13.9461 1.06685 49.3129
CA -10.9158 -11.9464 21.0747
CA -8.91054 -28.43 38.9088
CA 9.48099 8.20603 75.2118
CA -7.74764 -0.948456 52.0351
CA -31.072 -11.146 26.3514
CA -3.00656 -8.69786 19.5436
CA -4.98192 -5.30717 29.8591
CA -17.0528 2.00419 25.9792
CA -12.7679 -10.5563 47.099
CA 28.8916 6.11333 52.8432
CA 6.16211 -26.2517 43.4852
CA -0.679554 -25.5421 63.8446
CA -15.3041 -9.78246 23.1429
CA 1.02295 7.45493 39.5472
CA 7.14647 -20.8913 64.1358
CA 34.607 16.1955 52.1173
CA -14.9156 -15.7145 55.4878
CA -0.0096651 -23.5689 30.66
CA 4.31767 -18.5937 78.607
CA -6.23875 -2.97835 50.5076
CA -19.2801 -28.3848 21.7112
CA -4.6761 -27.2399 67.0851
CA 9.02448 -19.0028 75.3032
CA 2.19507 2.16859 68.6036
CA -21.4331 -1.68137 30.2745
CA 9.69182 28.1692 39.3764
CA 3.51107 3.59903 66.0041
CA 5.25302 12.627 43.3142
CA 31.5777 21.987 54.2397
CA 5.4977 -14.0051 61.5293
CA -1.34627 -15.9881 32.3961
CA 16.3289 7.86556 25.1017
CA 6.4033 -28.7274 40.8879
CA 1.45659 15.791 63.6281
CA -6.50257 -3.49237 23.5399
CA -12.5836 -15.0239 59.7036
CA -0.439533 9.09842 27.9195
CA 4.06772 8.85104 31.0049
CA -7.24067 -14.1122 27.7325
CA 2.47739 -19.5438 86.3554
CA -5.11832 -25.0589 33.7165
CA -3.90904 -21.7709 33.325
CA -15.9895 -32.438 32.9862
CA 3.96929 -35.4776 40.8179
CA -4.19999 -5.57207 27.2988
CA -18.2136 3.79544 25.9786
CA -19.0636 -10.4304 54.1129
CA -4.14808 12.7275 71.3938
CA 11.0103 11.4407 36.98
CA -6.78191 -0.148365 24.0942
CA 5.77086 -21.7551 65.2883
CA -16.4739 2.96305 48.7218
CA 2.038 -14.7454 39.7412
CA -8.19636 -23.4994 45.4685
CA -8.97924 -17.5086 41.047
CA -0.222956 -15.0949 35.8466
CA 3.55294 5.20673 50.8613
CA 17.0461 21.3367 45.1407
CA -12.5706 9.46287 47.3755
CA 1.55638 -0.307213 72.8344
CA -7.25379 -6.98166 51.9929
CA -6.19894 -5.01772 51.0534
CA 6.65402 17.1786 39.8054
CA 14.4793 25.4614 44.8042
CA 5.00324 16.783 34.5842
CA -3.19825 -4.34211 30.4461
CA -15.0901 5.48513 46.4274
CA 7.28111 28.7116 41.953
CA -3.9278 14.1207 43.5008
CA -22.8351 4.7863 26.4002
CA -11.2272 0.570882 50.2996
CA -25.2029 -29.3155 46.7781
CA -22.6851 -17.4795 42.5717
CA -2.91103 -12.6296 16.1946
CA -14.8909 -9.13808 43.5821
CA -18.2619 10.2297 42.4457
CA 3.00496 -35.9469 45.9864
CA -4.88729 -21.2958 61.4005
CA 5.72991 19.7311 34.1095
CA -19.6583 6.75641 28.7731
CA -6.70796 -9.18694 21.4976
CA 5.59519 -23.2426 39.4015
CA 8.17416 -31.6611 35.9794
CA -18.3009 -6.77865 19.2169
CA -9.61101 -3.5801 18.3943
CA 3.89277 19.5144 37.6884
CA -0.327508 -21.312 28.5812
CA -9.46069 9.77319 68.4403
CA 33.4268 13.1912 35.6261
CA -4.08938 10.1107 47.015
CA 5.44276 17.8291 36.6382
CA -22.3508 -10.5022 16.5631
CA -13.5247 8.89098 49.0674
CA -5.52592 -20.819 66.1811
CA -4.39999 9.1796 28.5924
CA -3.39104 -29.0051 53.5451
CA -24.067 -1.3721 34.0151
CA -8.46075 -15.8311 26.1684
CA -15.8166 7.54766 46.4267
CA 2.00955 17.3638 53.3565
CA -11.4769 -20.876 29.8794
CA 2.62688 -22.9358 42.673
CA 14.4988 13.2921 33.2624
CA -4.12328 13.3182 69.6699
CA 10.5543 -16.8016 74.8653
CA -16.9023 2.61114 52.4064
CA -5.01546 -23.9255 61.1695
CA 23.966 12.6934 82.7688
CA 7.57181 -19.3054 79.3453
CA 11.7013 -15.1584 72.286
CA -5.29018 0.518724 21.9008
CA -17.5625 3.35676 28.6726
CA -29.6072 -12.8113 25.7322
CA -10.2069 -6.92853 18.3476
CA -10.237 -32.9076 60.6906
CA -20.812 2.56121 52.3646
CA -17.5029 10.9844 32.2611
CA 3.02718 7.67053 51.1039
CA 8.81582 17.2 28.3341
CA -3.59005 -18.8634 32.9149
CA -0.24271 9.60118 49.2119
CA -2.43942 -20.5122 35.2813
CA 20.6206 12.9389 35.1637
CA -0.823875 6.04927 45.9603
CA 7.20597 30.6751 47.6176
CA 0.125219 -22.9776 36.5352
CA 2.51931 -22.3512 86.0484
CA 9.84546 -16.1811 79.1168
CA 21.5166 -3.97383 10.2562
CA -0.332936 11.4217 44.5006
CA 4.98594 16.8177 48.3192
CA -15.2139 -17.5752 55.52
CA 11.1721 17.552 33.5338
CA -1.13955 -23.0742 33.381
CA 12.8231 6.30875 28.8794
CA -5.27931 -33.4341 58.4271
CA 3.07532 -34.9478 42.9951
CA -4.44521 -12.059 24.9389
CA -2.76627 9.48178 42.9015
CA -5.72337 -17.2538 60.2
CA -5.10399 9.08977 48.9531
CA -18.7085 -37.7928 48.2673
CA -20.9424 -20.3398 54.5465
CA -7.873 -18.4509 62.3311
CA 15.1048 5.19953 24.8041
CA 6.289 -19.4408 81.106
CA -20.7963 -17.8064 20.3184
CA -10.2575 -33.1063 63.4789
CA 8.01039 18.1839 44.8913
CA 5.45478 -12.743 32.4324
CA 1.13222 -41.5707 55.4772
CA -8.85335 -30.7122 43.6532
CA 21.0395 11.2936 20.595
CA 4.57105 10.937 74.5622
CA 28.3119 14.1358 86.9042
CA 20.4071 9.01563 21.7313
CA 16.0083 1.34063 53.2765
CA 41.8235 -15.1868 34.5272
CA 5.7578 28.095 43.8448
CA 19.1215 19.6835 44.8079
CA 0.770526 -20.6978 25.5436
CA -15.519 14.5059 44.317
CA 2.58813 6.09819 49.1992
CA 11.657 11.418 29.0772
CA -8.89158 -7.19561 20.1914
CA -10.7543 19.2794 80.5596
CA -8.01433 -20.3436 28.1855
CA -8.61626 -11.3469 18.6799
CA -9.67121 -6.82448 29.6329
CA -7.24894 -21.9196 35.872
CA -11.1743 -26.5114 59.2068
CA -1.96151 8.33911 37.2148
CA 5.82468 22.5287 39.4185
CA -6.05296 -14.8767 29.5922
CA -8.21018 -18.0603 29.2201
CA -3.27904 8.8343 45.8156
CA -10.6666 -2.35474 49.3884
CA -14.3951 -42.4116 47.7293
CA 7.73895 -11.427 75.6747
CA -1.61093 -19.8351 37.6232
CA 7.5871 17.8254 29.6509
CA 8.03956 30.9984 37.9131
CA 2.76338 14.553 79.4143
CA -5.16001 -5.9522 14.1921
CA -3.80762 -27.5941 51.8412
CA -7.14251 0.135146 46.6772
CA -17.6448 8.29641 34.4267
CA -9.72634 -27.3012 41.4847
CA -18.1761 5.24255 47.1484
CA 4.57477 -21.4708 38.9718
CA 4.75936 27.7562 38.8597
CA -1.0641 -6.42806 22.918
CA -4.86502 -23.7567 37.7257
CA -8.86011 -7.70494 24.5733
CA -27.7627 -25.4836 53.2964
CA -21.0773 2.81505 33.0875
CA -10.0961 -25.9857 23.2644
CA 0.803307 0.436795 25.4302
CA 7.54705 17.9023 37.745
CA 2.3932 7.47083 30.3984
CA 28.1198 -19.1483 37.635
CA -6.40178 -18.7211 64.8329
CA -3.94454 -21.6603 37.7685
CA 1.18025 -36.2039 57.6422
CA -1.95846 8.63138 48.9986
CA -7.90853 -16.8628 22.6619
CA 24.2988 6.23023 23.8195
CA 33.6021 11.8899 38.5848
CA -5.96526 -1.21442 49.2386
CA -2.93363 17.9984 52.9023
CA -7.95918 -12.6603 25.061
CA -9.97077 14.726 40.5893
CA 0.904162 -16.5301 60.8488
CA -19.8003 2.40248 26.5735
CA -5.25187 -26.0475 21.8506
CA -1.12242 -18.9273 35.4798
CA -13.4139 -29.0722 40.1409
CA 11.767 15.2534 32.9447
CA -9.39884 4.67625 68.9262
CA -8.51198 -3.03496 20.1476
CA -2.80037 -1.05346 22.6909
CA 32.0437 6.29623 40.7453
CA -15.3869 -4.59366 21.9455
CA 1.74892 -32.9987 40.369
CA 1.33027 -21.0082 82.7725
CA -12.9998 -20.9742 28.2906
CA -19.8729 -31.6315 54.4315
CA -27.7885 -23.5696 48.7739
CA -21.6842 12.7072 50.3341
CA 30.5672 -19.9377 38.0084
CA -19.527 -33.6433 46.8358
CA -15.6179 -5.93484 18.3135
CA -13.7413 -39.4177 44.7527
CA -5.38186 -8.13895 20.533
CA 1.73507 13.5291 34.8716
CA 25.7195 15.217 86.8466
CA -8.91175 -28.3412 54.02
CA 13.9644 -3.40904 63.7872
CA 1.72672 -25.7739 31.4677
CA -26.1349 -8.32481 24.8422
CA -16.3378 0.501553 55.8638
CA 9.97267 -3.22058 66.7762
CA -15.4586 5.7504 34.3635
CA 2.92013 -22.0296 34.1966
CA -3.50277 -20.7808 67.5241
CA 7.36361 -16.3706 63.9916
CA -10.6189 -2.60224 45.461
CA -0.311541 -12.7544 35.4818
CA -10.6359 -18.0192 24.3598
CA 7.20717 30.7237 41.3866
CA 1.73955 -26.6441 41.2672
CA -7.57978 -30.6535 66.8839
CA 14.9571 -26.6598 67.1264
CA -0.557133 2.84703 24.7898
CA -3.36682 20.0261 51.8821
CA 0.505654 -10.4529 20.1098
CA -14.2823 -17.3178 29.6436
CA -8.15321 -1.08997 49.8014
CA 4.41049 -10.2451 30.5513
CA -18.5462 -35.2056 49.0494
CA -10.1335 -21.6189 28.4168
CA 17.5513 12.2568 32.1509
CA 2.46912 17.5419 48.5719
CA 0.444008 16.7719 65.1703
CA -20.8688 -0.556037 25.3911
CA -6.77966 9.31725 45.8236
CA -3.08691 -9.96011 22.0804
CA -3.84471 -1.43552 49.9205
CA 16.5502 19.4121 42.1516
CA 12.5683 6.61746 33.6811
CA -3.67219 15.8815 85.9561
CA -15.0123 -17.253 47.7398
CA 4.57432 19.4003 58.8024
CA -19.7214 8.0292 48.6912
CA -15.3113 -17.6225 23.7977
CA 9.4944 -11.8661 73.7096
CA 5.4277 -0.884692 73.433
CA -12.8258 -15.0433 32.8547
CA 8.66289 3.71644 27.4914
CA -10.6509 -19.6071 62.5505
CA -7.57089 -30.0739 59.876
CA -15.0297 -31.4269 50.5278
CA -24.671 -10.2097 46.8933
