489

CA 1.05274 -8.92058 54.8878
CA -20.3513 -5.72534 39.304
CA -30.5282 -19.7668 49.8734
CA -19.407 -16.2972 7.44006
CA -27.9506 -2.85061 46.5962
CA 1.88554 -13.6614 55.5738
CA -13.4554 -15.7266 76.6955
CA 2.75029 -25.5809 74.2367
CA -9.26107 -7.08795 43.0823
CA -14.1746 -31.684 46.7584
CA -30.5952 -37.2682 41.3853
CA -15.9042 -36.4271 69.9242
CA -34.2955 -30.3462 49.5671
CA -40.8998 -15.0083 59.6919
CA -43.8387 -23.2765 72.2839
CA -15.6862 -16.6945 36.9766
CA -36.4393 -15.7676 41.0521
CA -25.9752 1.29148 44.8425
CA -28.3706 -31.0595 67.89
CA -34.1593 -27.7089 47.8414
CA -22.8917 -25.1786 47.5
CA -3.83111 -3.71611 64.7521
CA -17.866 -6.60455 48.0886
CA -4.76664 -17.7108 72.0455
CA -38.1753 -10.2082 56.7939
CA -19.9509 -1.55782 58.0587
CA -14.416 -4.98017 53.6716
CA -16.0295 13.4491 25.2875
CA -31.0087 -27.6738 64.0477
CA -31.3157 -31.0834 63.1636
CA -7.3168 -31.1797 60.6948
CA -30.4834 -18.2666 53.9429
CA -11.709 3.51606 34.4399
CA -16.1077 13.3876 23.3381
CA -49.4584 -13.6442 71.0858
CA 3.33734 -3.56468 62.0327
CA -14.633 -34.2847 69.9102
CA -1.77974 -19.2652 51.2253
CA -27.6846 -20.5894 63.8733
CA -51.5173 -12.1647 73.0309
CA -17.2531 -18.11 8.90565
CA -35.753 -21.0494 47.6768
CA -14.583 -16.6254 21.9879
CA -15.346 -18.3431 76.1229
CA -15.2307 -27.7382 62.7015
CA -19.1434 -19.161 50.2183
CA -18.3752 -25.3593 53.169
CA -37.8953 -10.295 50.5746
CA -8.98377 -25.977 54.4062
CA -12.9783 -17.2181 43.2367
CA -10.5651 -10.3297 86.9293
CA -34.7299 -16.9781 40.834
CA -40.1084 -12.9851 56.0005
CA -17.1351 -2.69825 39.0722
CA -2.17776 -30.9498 43.7996
CA -4.81326 -0.729861 58.6506
CA -13.2048 -14.7462 72.6522
CA -36.9855 -7.64754 68.4734
CA -51.5301 -15.135 82.3079
CA -14.4169 -6.15487 44.359
CA -28.1136 0.803131 46.0028
CA -37.5396 -7.58289 71.8373
CA -1.67095 -17.0635 16.9428
CA -43.1963 -25.2502 71.9127
CA -10.4848 5.62888 54.3365
CA -30.742 -10.5169 59.0014
CA 7.74399 -27.1661 72.3554
CA -7.43815 -24.308 59.8754
CA -43.7665 -12.4977 68.9424
CA 1.46845 -28.8962 49.9743
CA -33.961 -25.3891 64.091
CA -28.5527 -28.9943 63.2611
CA -42.8861 -29.1203 52.3291
CA -0.3092 -31.6931 44.656
CA -26.5801 -44.853 63.7398
CA -32.7706 -17.5992 69.828
CA -30.3936 -31.475 56.012
CA -44.3114 -18.1892 79.4091
CA -43.8172 -3.57091 58.204
CA -33.6039 -17.1009 68.1103
CA -3.61728 -29.8808 61.0009
CA -16.4484 -7.55512 42.8979
CA -43.8723 0.377368 56.4581
CA -18.5225 -32.7653 53.9024
CA 1.97306 -26.1231 78.1841
CA -16.2944 -25.8627 63.7543
CA -10.9066 -27.5584 37.9465
CA -20.3865 -19.4702 48.9372
CA -34.9981 -28.8571 65.6979
CA -21.1678 -11.228 45.1819
CA -11.6686 6.68015 50.75
CA -10.5773 3.76874 55.0982
CA 2.80668 -24.0494 72.3362
CA -43.8633 -13.0421 65.3261
CA -10.0998 -24.3195 75.1063
CA -19.6559 -36.1572 55.4893
CA -2.80079 -15.7085 10.6884
CA -0.749065 3.69414 60.1762
CA -7.94631 -33.6094 56.8451
CA -18.5222 -5.19915 41.4131
CA -29.4341 -15.9965 77.7785
CA -8.80586 11.6379 34.6329
CA -37.192 -4.53914 68.5376
CA -30.8018 -18.7032 80.1001
CA -4.01851 -30.6997 75.6892
CA -35.0954 -15.22 75.7227
CA -28.5109 -9.53854 70.5494
CA -3.56169 -27.0459 46.9536
CA -9.89415 -6.75938 62.2333
CA -17.959 -13.8097 57.9262
CA -38.1184 -27.9302 63.7493
CA -11.0251 -34.9156 65.7286
CA -11.4625 -34.313 73.425
CA -42.5787 -11.9517 76.7666
CA -41.7381 -20.101 48.369
CA -12.798 -19.2956 64.1772
CA -10.5544 2.20012 61.4805
CA -30.5719 -0.971927 38.5724
CA -28.4803 -14.1541 60.1675
CA -12.4324 -34.7168 69.8124
CA -21.3633 -22.5391 55.7383
CA -17.8112 -29.1866 28.7787
CA -16.3377 -14.6684 80.2914
CA 1.92124 -6.73094 60.7107
CA -26.4493 -31.2327 36.231
CA -17.1762 -0.479956 56.4287
CA -37.3937 1.54621 66.8337
CA -22.7572 -9.89432 39.9305
CA -39.7048 -15.6772 78.9758
CA -23.7406 -8.59675 45.1392
CA -10.1866 -38.8081 75.175
CA -39.9673 -1.32297 58.8122
CA -29.2418 -15.699 46.7844
CA -38.6715 -2.80436 65.5289
CA -27.3704 -17.2831 57.7781
CA -17.0158 -14.3544 27.086
CA -36.7169 -9.85246 49.0122
CA -35.3908 -34.0722 56.5475
CA -35.0866 -23.7752 46.6716
CA -15.9577 -12.8517 32.0032
CA -7.20765 -34.1331 47.7772
CA -8.7291 5.86701 51.4173
CA -6.37611 -32.1933 37.0952
CA -47.6076 -9.32561 67.136
CA -30.0712 -46.9924 60.7831
CA -42.0525 -6.9767 48.0138
CA -44.4588 -28.654 53.8649
CA -29.6635 0.854326 43.5086
CA -28.2977 -18.1633 43.3395
CA -37.8132 5.8837 67.0871
CA -10.8399 -12.0655 10.2048
CA -32.7575 -32.3247 56.3345
CA -37.7794 -16.4074 80.5317
CA -6.40626 -34.4395 78.1917
CA -18.772 -27.5278 32.9388
CA -34.6507 -22.7327 70.983
CA -42.7289 -25.0001 69.593
CA -41.2451 -25.0339 60.4654
CA -24.1728 -29.8811 50.7543
CA -39.8045 -6.47268 56.0458
CA -18.6218 -38.9083 33.0488
CA -4.79453 -14.8941 19.6527
CA -7.1361 -2.14667 60.3151
CA -29.7662 -27.8998 65.7566
CA -3.88981 -15.8692 66.6496
CA -29.8199 -32.6395 52.9488
CA -19.6595 6.60354 51.0142
CA -24.8596 -32.6216 33.4777
CA -46.3032 -13.7718 80.0466
CA -29.0119 -15.7288 54.2017
CA -30.8517 -29.7289 44.2146
CA -45.5072 -19.5833 51.63
CA -44.4262 -5.35233 57.6808
CA -17.6612 -25.1165 30.1926
CA -14.3349 -36.5235 66.61
CA -17.6221 -0.603109 40.5967
CA -14.4118 -10.2598 38.1351
CA -36.3389 -4.52283 39.7081
CA -26.1842 -37.0015 71.6813
CA -12.0571 -31.3649 48.1484
CA -19.6937 -35.8202 70.5647
CA -4.48081 -17.9815 52.3939
CA -22.1701 -14.7486 32.0584
CA -19.0111 -9.6416 41.3245
CA -8.94685 -12.4229 13.7441
CA -32.9482 -26.9208 62.3174
CA -29.2818 -17.1269 49.1099
CA -5.59106 -24.7279 57.6056
CA -17.6921 -31.6442 60.7775
CA -38.0095 8.62048 67.3184
CA -36.5777 -28.5018 74.0852
CA -11.1584 -20.6103 72.1406
CA -32.7838 -7.26444 59.6664
CA -1.41109 -23.2634 49.6409
CA -27.8224 -11.1989 78.3116
CA -30.1401 -34.8314 44.6581
CA -12.2718 -11.6797 15.021
CA -19.278 4.2111 48.5087
CA -14.3014 -33.0823 49.8496
CA -8.61388 5.18647 55.7956
CA -30.742 -12.3999 79.3993
CA -26.8805 -29.4652 35.6391
CA -37.5906 -7.916 54.0982
CA -43.0289 -31.2973 54.5508
CA -39.4133 1.28773 57.954
CA -9.35254 -5.51827 44.9659
CA -12.7805 -10.7748 52.3942
CA -30.0789 -23.5297 65.9632
CA -36.4085 -23.9161 69.8793
CA -32.1815 -13.2221 75.956
CA -10.6836 7.97449 32.0437
CA -35.0507 -7.94817 69.2289
CA -22.4307 1.56795 42.2471
CA 9.54334 -32.6375 67.3025
CA -36.7369 10.4098 66.53
CA -48.4079 -17.5254 81.1573
CA -36.664 -20.3151 66.5095
CA -13.4984 0.914238 53.1149
CA -14.6734 -32.4435 58.8786
CA -19.016 -8.02296 61.0741
CA -24.1025 -39.1618 49.9972
CA -25.6662 -11.268 64.4037
CA -7.13279 -30.937 41.7335
CA -14.6859 -21.521 65.9004
CA -5.27544 -15.0515 16.4918
CA -39.9977 -8.30217 52.1263
CA -11.7454 7.75093 57.6881
CA -31.4535 -18.2189 63.38
CA -29.8948 -40.4463 41.5581
CA 1.4651 -7.42081 64.5726
CA -37.7255 -11.3452 67.5793
CA -27.7215 -26.5307 50.7715
CA -36.1927 -17.9629 46.7428
CA -1.12698 -7.424 67.4142
CA -11.9319 -22.0647 74.5434
CA 12.5789 -30.1042 71.129
CA -35.5372 -17.8829 58.0499
CA 1.19666 -24.1302 63.2812
CA -15.3988 -9.99016 54.9371
CA -5.31274 -3.97833 66.1661
CA -16.1417 -14.6453 31.9231
CA 1.95547 -15.6214 51.2209
CA -14.2206 -29.9213 71.14
CA -9.2937 -15.5874 44.9559
CA -13.0621 1.69649 39.3953
CA -29.5846 -9.99914 75.9421
CA -4.3491 -28.3019 59.2236
CA -39.037 -7.59086 69.0206
CA -34.6337 -1.39892 37.4132
CA 3.82087 -5.66707 62.1222
CA -18.5072 -30.3131 49.8873
CA -31.8194 -15.1238 44.8672
CA -21.1515 -11.1777 35.8746
CA -24.0395 -11.4893 66.7659
CA -31.5305 -35.4139 58.9985
CA -0.0364308 -0.406571 56.9432
CA -14.704 -23.3418 32.9467
CA -41.9138 -19.8594 64.2861
CA -0.897824 -20.27 19.6215
CA -18.7183 -20.6037 30.3219
CA -5.90326 -32.404 43.8186
CA -5.32766 -3.13834 60.0276
CA -42.8566 -34.7449 50.9199
CA -36.8798 -35.207 67.3216
CA -32.7877 -33.7074 49.8215
CA -29.197 -35.5573 70.02
CA 3.58649 -27.1708 73.8579
CA -18.4303 -15.2604 67.9081
CA -11.1071 -29.0937 62.7677
CA -17.8814 -23.3226 56.9936
CA -14.4123 -1.55048 47.8639
CA -30.3244 -18.3556 70.0479
CA -7.29665 -18.6988 48.8266
CA -3.02977 -24.7041 47.9845
CA -28.029 -43.7645 65.1783
CA -8.69784 -33.1271 54.1946
CA -32.0129 -4.44813 57.744
CA -16.9369 4.1403 48.932
CA -18.6666 -7.64841 41.6404
CA -4.525 -33.339 45.1229
CA -12.6161 -24.1897 37.8777
CA 14.0344 -28.4398 74.3093
CA -4.14255 -31.5081 43.0371
CA -39.8698 -27.4743 49.0453
CA -10.7416 -31.686 69.439
CA -27.5131 -9.61696 67.5479
CA -33.1166 -15.5686 77.8984
CA -26.6989 0.477444 47.9039
CA -15.85 -14.8171 10.5522
CA -40.8366 -14.0512 78.6374
CA -33.7627 -20.5599 71.1071
CA -1.05772 -13.4005 59.2873
CA 12.4288 -27.4839 76.3818
CA -3.96303 -14.2299 74.9033
CA -39.5967 -15.652 40.6002
CA -14.5884 -14.5535 18.371
CA -31.8556 -21.1499 62.3237
CA -14.6608 -33.5645 35.3217
CA -8.59151 -35.7387 77.0574
CA -36.3886 -19.7391 73.7271
CA -11.5582 1.03704 40.9943
CA -3.7596 -14.3516 60.6508
CA -25.0115 -19.1939 56.1916
CA 5.31126 -6.46803 65.1769
CA -18.0371 -29.7959 33.2811
CA 2.63288 -20.8809 67.0676
CA -22.117 -15.8839 53.3021
CA -20.9633 -10.4666 54.3841
CA -42.4035 -33.8463 52.618
CA -3.31275 -23.5865 63.9275
CA -2.58862 -27.8009 59.2242
CA -40.1427 -25.6395 51.8783
CA -18.6529 -27.8414 37.1564
CA -32.2063 -9.1771 75.6046
CA -14.1894 -8.53441 44.4659
CA -36.7034 -12.3384 68.8557
CA -11.2569 -18.0657 76.858
CA -43.7744 -18.1006 72.4223
CA -15.2377 -30.3701 63.7436
CA -18.8252 -29.1623 42.2742
CA -15.2939 -8.13151 58.8167
CA -43.3759 -25.6504 52.2582
CA -42.1075 -7.98482 57.9863
CA -20.7707 -35.9418 34.9777
CA -18.0525 -17.5995 41.2419
CA -13.3065 -14.8848 25.6568
CA -20.3967 -21.0958 56.3623
CA -32.9046 -28.4817 52.7278
CA -26.9518 -7.34049 65.6852
CA -34.8995 -3.17422 41.6606
CA 1.18416 -26.34 68.0071
CA -28.6058 -13.5407 72.6995
CA -43.4221 -20.3827 73.2295
CA -2.85216 -26.1201 60.1351
CA -22.5067 4.32511 41.4238
CA -12.2863 -24.4365 69.8843
CA -26.7962 -41.1049 59.964
CA -52.4564 -6.93658 69.1537
CA -14.8521 -14.3451 37.1861
CA -17.6708 -34.0684 35.3759
CA -23.8158 -13.9907 63.6178
CA -10.3036 -16.7796 42.8802
CA -20.6903 4.69922 47.2463
CA -15.3539 -27.9479 42.7436
CA -14.3602 -12.2323 86.3358
CA -38.1729 -22.326 69.32
CA -13.3533 -8.25402 51.3591
CA -23.805 3.63257 45.4341
CA -6.29705 -38.2568 43.3066
CA -16.3524 -2.34571 56.7178
CA -18.5054 -32.3232 69.5088
CA -39.7377 -22.9188 44.7631
CA -23.1206 -14.7097 66.7259
CA -16.1658 -23.6049 31.6846
CA -2.21266 -13.0413 65.231
CA -3.17663 -30.6913 79.0827
CA -18.7198 -13.4863 71.4499
CA -5.55941 -17.1306 67.5127
CA -19.8164 -7.89958 63.2961
CA -33.9559 -18.5274 81.4284
CA -29.3194 -1.02724 55.1301
CA -37.5287 -33.0252 65.4253
CA -7.55619 -3.75669 56.1785
CA -34.1597 -13.6424 65.1622
CA -13.3657 -14.9946 23.7614
CA -43.9474 -12.3777 67.0825
CA -22.6057 -31.8386 32.5895
CA -25.6625 -39.7482 56.1406
CA -26.5914 -21.4881 61.8522
CA -11.7574 -9.85931 82.0489
CA -20.5261 -27.5981 36.0037
CA -27.4649 -26.8042 46.3219
CA -22.3806 2.64072 55.8429
CA 6.98417 -18.4986 72.1016
CA -11.7135 5.42004 55.9233
CA -18.0008 -34.4004 54.5317
CA -32.8847 -15.1536 70.2095
CA -17.5559 -23.1507 52.1445
CA -29.3837 -15.1798 73.8975
CA -17.7799 -9.39691 50.0669
CA -34.8097 -31.9962 66.4017
CA -12.4993 12.2879 29.4749
CA 1.79032 -4.7621 63.1716
CA -16.6579 -21.4288 53.9273
CA -24.2055 -12.5448 69.4002
CA -13.4804 -8.13889 60.3513
CA -10.6529 -31.7679 63.0079
CA -20.7875 -30.3165 44.9068
CA -33.6245 -14.0621 40.9124
CA -0.328498 -17.9342 47.3025
CA -24.5548 -14.06 31.4372
CA -48.1664 -20.1758 74.7398
CA -14.4455 -26.1849 38.0634
CA -14.3061 -10.2787 59.5811
CA -20.372 -14.4736 50.9991
CA -42.876 -0.861881 58.0934
CA -9.49589 0.0475127 47.444
CA -28.5858 -40.4131 61.3137
CA -6.03897 -4.81218 59.8734
CA -2.61491 -15.9785 12.788
CA -13.5525 -9.27132 41.2719
CA -41.7052 -14.016 50.3705
CA -28.4191 -21.8246 65.1888
CA -25.6097 -28.3846 46.7215
CA -35.2197 -30.1591 68.7954
CA -15.3276 -18.3529 40.609
CA -18.1797 -1.92839 47.8879
CA -2.52778 -28.3756 57.3037
CA -36.9436 -4.65211 66.5149
CA -10.8972 -25.2704 73.3293
CA -24.0463 -6.89321 62.1547
CA -35.9283 -13.6668 63.4571
CA -29.7441 2.73934 44.2552
CA -16.769 -14.3254 37.5839
CA 4.5867 -25.7143 69.6337
CA -35.9762 2.65249 37.0438
CA -2.03389 -15.2116 72.2413
CA -10.6677 -22.2135 76.4032
CA -24.9221 -34.6025 41.8904
CA -31.5422 -14.8414 59.1273
CA -1.21605 -14.313 17.5955
CA -41.397 -17.1467 49.0725
CA -28.671 -31.5829 43.1258
CA -46.8887 -11.3032 74.2378
CA -23.8236 -12.8325 58.3763
CA -32.1146 -5.36101 55.5928
CA -38.1324 -4.21957 56.0605
CA -13.0813 -2.4855 54.5782
CA -16.2015 -7.19466 54.7768
CA -21.7903 -27.7828 29.8536
CA -0.860311 0.571816 52.3121
CA -31.5794 -16.8717 37.8705
CA -43.7919 -25.7516 50.1207
CA -21.2887 -11.7958 61.797
CA -8.58675 -8.09926 83.6985
CA -10.8329 -13.4554 64.1245
CA -9.57376 -22.3816 71.9732
CA -42.0743 -16.8976 67.663
CA -40.4686 -14.3602 57.8769
CA -16.1322 -1.97544 43.2588
CA -13.9024 -1.11877 63.5316
CA -32.728 -18.7188 45.4157
CA 3.44542 -15.2037 71.1179
CA -45.0764 -22.8823 75.7845
CA -16.1954 -11.2964 82.4536
CA -31.8313 -36.8695 64.2697
CA -37.8081 -27.4227 51.2072
CA -17.7091 -14.6316 40.4779
CA -1.62868 -21.9923 65.4573
CA -17.7472 -10.7974 35.6455
CA -17.6441 -23.5901 61.5594
CA -2.92362 -17.416 45.0212
CA -17.4625 -23.4775 35.0885
CA -20.9514 -7.47217 44.2286
CA -22.903 -10.0102 58.5078
CA -15.8236 -25.037 32.7302
CA -34.6392 -6.50342 57.1649
CA -37.9942 -5.50332 59.8245
CA -23.7461 -14.9328 70.4385
CA -25.1587 -42.5518 62.5442
CA -24.233 -31.0849 44.3151
CA -5.64381 -25.9534 41.6383
CA -34.8386 -16.1939 69.6417
CA -26.5159 -35.0291 48.0427
CA -4.91064 -21.9138 67.1421
CA -18.6973 -5.51758 49.6385
CA -9.24413 -14.9074 68.4343
CA -18.8848 -11.4394 52.2473
CA -3.71046 -16.1063 51.8395
CA -19.43 -27.8093 44.2496
CA -33.9245 -32.619 54.0662
CA -23.5009 -19.5205 57.3036
CA -31.8996 -19.4263 51.7302
CA -37.5519 -8.37206 52.0954
CA -2.18347 -26.6637 48.6299
CA 3.17385 -26.5721 53.2952
CA -41.3273 0.499499 62.6638
CA -9.7533 -32.9956 35.892
CA -20.9128 -2.88776 50.5413
CA -18.8158 -23.6716 55.162
CA -9.38288 -4.27062 62.3252
CA -6.40848 -14.7486 69.8884
CA 3.81124 -6.73181 57.6424
CA -25.6326 -37.9109 49.7296
CA -40.1633 -22.143 63.8353
CA -41.3084 -9.40033 69.0101
CA -11.6124 -0.124427 53.813
CA -37.4977 -34.8475 57.4223
CA -4.93587 -29.8527 55.0122
