489

CA 1.05274 -8.92058 54.8878
CA -20.3513 -5.72534 39.304
CA -30.5282 -19.7668 49.8734
CA 0.9586 -7.42001 63.4922
CA -29.9692 -10.4922 80.2244
CA -14.806 -17.4736 67.2311
CA -11.7244 -2.27186 57.047
CA -25.3166 -13.4189 66.5043
CA -26.138 -30.7459 71.0622
CA -32.9556 -5.23667 57.1965
CA -14.3403 -8.62618 57.2184
CA -15.9042 -36.4271 69.9242
CA -32.1313 -12.0229 57.3687
CA -34.5938 -15.5456 45.9472
CA -18.862 -33.53 56.9404
CA -3.87515 -1.63395 53.8587
CA -36.4393 -15.7676 41.0521
CA -7.63942 -13.0884 43.1129
CA -28.3706 -31.0595 67.89
CA -11.4161 -29.8414 69.7034
CA -11.1559 -21.5434 47.2061
CA -3.83111 -3.71611 64.7521
CA -19.401 -9.88621 72.0191
CA -4.76664 -17.7108 72.0455
CA 4.13717 -26.5326 67.6764
CA -30.7379 -11.2019 67.6577
CA -46.0068 -8.44272 66.5553
CA -16.0295 13.4491 25.2875
CA -10.9984 -3.22201 63.6545
CA -20.9624 -8.72331 53.6925
CA -7.3168 -31.1797 60.6948
CA -30.4834 -18.2666 53.9429
CA -11.709 3.51606 34.4399
CA -35.2609 -13.1391 66.5712
CA -35.5485 -35.3234 59.6304
CA 3.33734 -3.56468 62.0327
CA -13.0584 3.7336 45.9345
CA -1.77974 -19.2652 51.2253
CA -11.7184 -36.9065 67.7651
CA -31.0719 -16.1379 46.2508
CA -17.3066 -22.072 33.0068
CA -22.7184 -7.53421 58.3331
CA -14.583 -16.6254 21.9879
CA -15.346 -18.3431 76.1229
CA -15.2307 -27.7382 62.7015
CA -19.1434 -19.161 50.2183
CA -11.4535 -29.8687 74.1509
CA -37.8953 -10.295 50.5746
CA -45.9021 0.50162 60.4951
CA -11.2399 7.50793 55.2355
CA -11.2124 -4.92348 61.8727
CA -34.7299 -16.9781 40.834
CA -40.1084 -12.9851 56.0005
CA -18.4497 -20.9406 51.9197
CA -45.8363 -17.2201 67.7755
CA -4.81326 -0.729861 58.6506
CA -13.2048 -14.7462 72.6522
CA -21.9365 -22.0568 44.2286
CA -18.0117 3.00942 46.3435
CA -14.4169 -6.15487 44.359
CA -18.507 1.00578 43.4529
CA -18.8326 -9.18745 58.6469
CA -1.67095 -17.0635 16.9428
CA -36.0402 -14.8101 67.1723
CA -39.564 -14.6058 50.5164
CA -30.742 -10.5169 59.0014
CA 7.74399 -27.1661 72.3554
CA -36.9406 -37.2444 57.2538
CA -43.7665 -12.4977 68.9424
CA 1.46845 -28.8962 49.9743
CA -47.5617 -6.56056 70.1857
CA -34.9089 -16.596 72.8881
CA -6.72459 -27.2685 60.4461
CA -0.3092 -31.6931 44.656
CA -26.5801 -44.853 63.7398
CA -32.7706 -17.5992 69.828
CA -30.3936 -31.475 56.012
CA -44.3114 -18.1892 79.4091
CA -36.361 -29.9618 57.0386
CA -33.6039 -17.1009 68.1103
CA -3.61728 -29.8808 61.0009
CA -16.4484 -7.55512 42.8979
CA -43.8723 0.377368 56.4581
CA -37.6908 -32.3574 54.9456
CA -22.8317 -39.5227 48.8596
CA -16.2944 -25.8627 63.7543
CA -10.9066 -27.5584 37.9465
CA -20.3865 -19.4702 48.9372
CA -4.32387 -31.0723 43.1535
CA -21.1678 -11.228 45.1819
CA -48.8155 0.00692796 56.8778
CA -31.6355 -36.655 55.5434
CA 2.80668 -24.0494 72.3362
CA -43.8633 -13.0421 65.3261
CA -41.7326 -10.5702 55.2099
CA -7.52828 -5.76881 66.496
CA -42.3858 -23.1525 65.3628
CA -9.3593 -5.38486 53.4321
CA -7.94631 -33.6094 56.8451
CA -33.2048 -26.1851 50.6358
CA -42.9906 -9.90294 60.4083
CA -44.1544 -27.4011 52.7519
CA -37.192 -4.53914 68.5376
CA -16.0128 -21.4266 53.4334
CA -17.0167 -11.6148 26.0427
CA -28.2619 -4.24602 49.1737
CA -34.8591 10.7576 62.602
CA -9.05127 5.91983 36.1317
CA -9.17718 -18.8702 61.5676
CA 3.35077 -14.3986 60.1172
CA -42.9716 -17.3082 67.7919
CA -11.0251 -34.9156 65.7286
CA -11.4625 -34.313 73.425
CA -42.5787 -11.9517 76.7666
CA -41.7381 -20.101 48.369
CA -31.1506 -30.6359 36.3955
CA -31.0594 -18.2785 73.5091
CA -30.5719 -0.971927 38.5724
CA -14.2135 -13.0658 24.7188
CA -37.0461 5.16657 68.6987
CA -4.83355 -16.4474 9.13547
CA -10.4999 -11.2968 80.2343
CA -16.3377 -14.6684 80.2914
CA -29.4823 -20.4797 64.0233
CA -26.4493 -31.2327 36.231
CA -20.0099 -18.2135 66.115
CA -37.3937 1.54621 66.8337
CA -24.3101 -8.39078 57.2974
CA -39.7048 -15.6772 78.9758
CA -23.7406 -8.59675 45.1392
CA -43.1145 -5.6456 48.7138
CA -2.60982 -9.10324 10.7659
CA -39.0583 -29.2751 52.5583
CA -38.6715 -2.80436 65.5289
CA -9.00849 -34.4885 43.8781
CA -17.0158 -14.3544 27.086
CA -36.7169 -9.85246 49.0122
CA -35.3908 -34.0722 56.5475
CA -35.0866 -23.7752 46.6716
CA -15.9577 -12.8517 32.0032
CA -27.9925 -42.3435 63.6346
CA -17.8926 -12.3365 41.2997
CA -29.0199 5.80409 42.2921
CA -47.6076 -9.32561 67.136
CA -0.426251 -14.1471 64.4382
CA -20.8592 -21.7881 42.3016
CA -8.9456 -14.4115 70.4062
CA -6.47704 -28.3346 57.18
CA -16.5068 -20.9 41.0746
CA -0.548724 -25.477 57.9795
CA -10.8399 -12.0655 10.2048
CA -2.70478 -12.835 55.092
CA 0.95254 -6.90032 53.3847
CA -17.2793 -17.6739 42.2284
CA -18.772 -27.5278 32.9388
CA -34.6507 -22.7327 70.983
CA -29.3001 -30.0509 65.045
CA -14.7978 -23.025 56.6245
CA -43.1129 -1.32476 61.3639
CA -22.4037 -30.3517 49.0538
CA -34.752 -20.5942 58.0304
CA -17.2674 -20.5368 68.3988
CA -16.1126 -0.136233 55.3621
CA -19.5041 0.472689 47.6439
CA -27.2443 0.253257 44.0833
CA -45.5471 -23.4689 72.9961
CA -19.6595 6.60354 51.0142
CA -31.3257 -7.24949 74.3092
CA -1.16845 -30.2926 59.489
CA -36.6872 -6.02885 70.6696
CA -22.0003 0.870729 47.9916
CA -29.1874 -5.80593 45.787
CA -44.4262 -5.35233 57.6808
CA -8.35031 -9.62124 13.8253
CA -15.4615 -24.2095 72.8886
CA -17.6221 -0.603109 40.5967
CA -30.0138 -15.7495 44.7047
CA 7.42363 -24.2274 52.8049
CA -26.1842 -37.0015 71.6813
CA -16.282 -25.3446 34.4584
CA -32.0366 -32.2204 51.0805
CA -37.0905 -14.6463 74.2193
CA -22.1701 -14.7486 32.0584
CA -44.6639 -15.4195 74.3957
CA -8.94685 -12.4229 13.7441
CA -32.9482 -26.9208 62.3174
CA -19.6849 -10.3056 56.1351
CA -5.59106 -24.7279 57.6056
CA -17.6921 -31.6442 60.7775
CA -45.1467 -10.8271 63.6832
CA -36.5777 -28.5018 74.0852
CA -26.9012 -21.6732 49.7389
CA -28.725 -13.546 70.1593
CA -1.41109 -23.2634 49.6409
CA -27.8224 -11.1989 78.3116
CA -30.1401 -34.8314 44.6581
CA -12.2718 -11.6797 15.021
CA -36.6927 -25.8001 50.7078
CA -21.2903 -12.974 42.1439
CA -5.87455 -12.9486 20.4916
CA -43.9232 -6.41409 60.7156
CA -26.8805 -29.4652 35.6391
CA -15.5727 -28.0919 53.6784
CA -24.3502 -2.34418 42.5013
CA -37.7207 -21.116 49.2628
CA -4.26671 -15.0865 48.3185
CA -37.3101 -8.40881 66.2376
CA -18.1653 -9.4935 51.1336
CA -37.0847 -15.0828 76.9319
CA 0.518311 -26.1699 71.5543
CA -10.6836 7.97449 32.0437
CA -26.8951 -10.7914 35.0339
CA -22.4307 1.56795 42.2471
CA -41.5422 -20.0249 70.3199
CA -36.7369 10.4098 66.53
CA -48.4079 -17.5254 81.1573
CA -28.5042 -26.6159 66.5456
CA -13.4984 0.914238 53.1149
CA -40.6275 -13.2889 79.5935
CA -14.696 -3.42007 39.1917
CA -6.27892 -16.7425 11.1107
CA -19.4669 -23.1805 51.807
CA -17.3685 -37.9444 75.5986
CA -14.6859 -21.521 65.9004
CA -5.27544 -15.0515 16.4918
CA -39.9977 -8.30217 52.1263
CA -11.7454 7.75093 57.6881
CA -31.4535 -18.2189 63.38
CA 0.939162 -27.537 47.4386
CA -0.988431 -12.9599 56.511
CA -17.5079 -34.6558 60.867
CA -0.82757 -5.95023 59.2836
CA -36.1927 -17.9629 46.7428
CA -25.286 -10.4886 42.7374
CA -5.39927 -10.2798 10.574
CA 12.5789 -30.1042 71.129
CA -26.4371 -2.80345 44.2012
CA 1.19666 -24.1302 63.2812
CA -26.6291 -8.20444 57.2432
CA -8.60326 -0.172119 45.3855
CA -37.5019 -34.2175 57.5916
CA 1.95547 -15.6214 51.2209
CA -14.2206 -29.9213 71.14
CA -9.2937 -15.5874 44.9559
CA -13.0621 1.69649 39.3953
CA -38.6481 -13.5245 47.7731
CA -19.0359 -27.7402 67.1331
CA -40.9832 -28.298 72.7002
CA -34.6337 -1.39892 37.4132
CA -38.0526 -37.6594 62.5996
CA -27.3023 -13.66 46.3522
CA -18.5015 -14.883 43.1989
CA -30.6602 -39.0314 44.5969
CA -25.8483 -31.1375 39.1791
CA -31.5305 -35.4139 58.9985
CA -0.0364308 -0.406571 56.9432
CA -14.704 -23.3418 32.9467
CA -41.9138 -19.8594 64.2861
CA -0.897824 -20.27 19.6215
CA -20.4171 -0.523158 56.6661
CA -4.69987 -20.2471 74.5662
CA -45.2671 -13.5361 77.9488
CA -39.8403 -31.5884 54.6099
CA -19.1392 2.57113 41.553
CA -34.9075 9.00882 68.3526
CA -29.197 -35.5573 70.02
CA 3.58649 -27.1708 73.8579
CA -24.4174 -7.13648 36.1885
CA -40.9589 -14.204 39.0708
CA -17.8814 -23.3226 56.9936
CA -14.4123 -1.55048 47.8639
CA -14.6696 1.75563 34.8298
CA -7.29665 -18.6988 48.8266
CA -38.5557 -6.02566 72.0438
CA -28.029 -43.7645 65.1783
CA -35.2346 -5.01748 65.9362
CA -24.4624 -39.5176 72.7346
CA -16.9369 4.1403 48.932
CA -6.60482 8.79449 31.002
CA -13.3119 -10.414 27.938
CA -12.6161 -24.1897 37.8777
CA 14.0344 -28.4398 74.3093
CA -45.0304 -10.0766 70.5296
CA -13.9743 2.41158 43.5024
CA -16.4871 -2.96117 47.2669
CA -27.5131 -9.61696 67.5479
CA -30.7567 -11.7557 62.2116
CA -19.3303 -33.1122 31.5661
CA -15.85 -14.8171 10.5522
CA -12.5116 -31.3235 66.6233
CA -28.7571 -7.33395 73.7736
CA -1.05772 -13.4005 59.2873
CA -32.1379 -17.4907 47.8535
CA -19.9066 -16.417 40.186
CA -39.5967 -15.652 40.6002
CA -14.5884 -14.5535 18.371
CA -44.9982 -19.891 70.3961
CA -37.7178 -9.88424 75.298
CA -8.59151 -35.7387 77.0574
CA -18.8639 -14.3776 36.0836
CA -18.5952 -19.6771 45.1373
CA -2.64714 -10.9005 61.9516
CA -32.7792 -40.9334 44.1278
CA -36.1994 -30.862 47.4322
CA -18.0371 -29.7959 33.2811
CA -3.365 -14.1359 53.3787
CA -43.4705 -15.4301 72.6453
CA -20.9633 -10.4666 54.3841
CA -16.3355 -18.7782 48.2353
CA -3.31275 -23.5865 63.9275
CA -33.9913 -28.5342 66.5172
CA -46.7061 -13.1433 62.7844
CA -32.7908 8.39921 65.7966
CA 3.47893 -27.3239 48.3657
CA -14.1894 -8.53441 44.4659
CA -14.4015 -19.7809 75.2911
CA -11.2569 -18.0657 76.858
CA -43.7744 -18.1006 72.4223
CA -15.2377 -30.3701 63.7436
CA -43.7155 -15.641 52.4916
CA -15.2939 -8.13151 58.8167
CA -32.02 -11.8909 75.0349
CA -44.0095 -29.4086 51.7419
CA -9.84389 -8.62078 30.5599
CA -13.2606 -18.0415 58.1705
CA -13.3065 -14.8848 25.6568
CA -22.1728 -20.2757 48.3071
CA -35.9032 -22.3379 57.0792
CA -26.9518 -7.34049 65.6852
CA -43.8838 -27.8405 66.073
CA -12.3264 -4.29039 65.0801
CA -18.3507 -29.5625 31.2019
CA -18.1433 -5.04001 35.5159
CA -2.85216 -26.1201 60.1351
CA -51.566 -12.6106 76.0424
CA -12.2863 -24.4365 69.8843
CA -26.7962 -41.1049 59.964
CA -35.3423 -21.5396 61.5002
CA -14.8521 -14.3451 37.1861
CA -6.5831 -32.6341 45.1837
CA -18.7954 -35.3347 61.953
CA -16.369 -23.2096 50.7601
CA -43.7907 -6.60109 56.2671
CA -10.4603 -12.7528 86.249
CA -14.3602 -12.2323 86.3358
CA -8.7876 6.33655 34.2709
CA -18.5103 -29.0997 63.8749
CA -15.1182 0.364154 44.5859
CA -31.2969 -38.7657 42.5721
CA -16.3524 -2.34571 56.7178
CA -18.5054 -32.3232 69.5088
CA -22.5938 -14.8622 34.3186
CA -23.1206 -14.7097 66.7259
CA -12.941 -19.5197 52.8723
CA -2.21266 -13.0413 65.231
CA -15.269 -15.1839 84.9669
CA -18.7198 -13.4863 71.4499
CA -5.55941 -17.1306 67.5127
CA -11.0451 -18.0364 63.6345
CA -30.6818 -19.6362 62.056
CA 5.45001 -27.2137 75.3134
CA -19.3759 -34.0335 55.1152
CA -7.55619 -3.75669 56.1785
CA -13.4023 2.16434 47.0614
CA -28.9566 2.20904 41.3191
CA -20.588 -8.55914 59.163
CA -22.6057 -31.8386 32.5895
CA -25.6625 -39.7482 56.1406
CA -6.90175 8.10438 58.6837
CA -13.3471 -34.9304 72.5117
CA -22.1104 -7.01863 46.0306
CA -27.4649 -26.8042 46.3219
CA -45.7692 -21.38 74.1667
CA -19.3834 -34.1708 73.7919
CA -11.7135 5.42004 55.9233
CA -16.4542 3.68491 40.9399
CA -20.7713 -13.0452 54.1121
CA -11.4175 -24.5817 68.1136
CA -1.43836 -26.087 67.554
CA -15.3388 -9.00823 50.8819
CA -34.8097 -31.9962 66.4017
CA -12.4993 12.2879 29.4749
CA -44.0697 -2.57555 59.8383
CA -19.324 -17.745 31.7936
CA -21.6771 -31.8898 43.3496
CA -13.4804 -8.13889 60.3513
CA -10.6529 -31.7679 63.0079
CA -20.7875 -30.3165 44.9068
CA 0.106864 -10.487 62.3855
CA -34.0594 -12.435 79.012
CA -20.4102 -3.74547 58.5928
CA -3.83838 -16.2029 49.9588
CA -12.2881 -11.0009 31.21
CA -14.3061 -10.2787 59.5811
CA -20.372 -14.4736 50.9991
CA -18.6676 -25.225 76.5118
CA -9.49589 0.0475127 47.444
CA -28.5858 -40.4131 61.3137
CA -11.4657 -8.67359 28.7974
CA -2.61491 -15.9785 12.788
CA -1.45621 -9.23985 55.3376
CA -41.7052 -14.016 50.3705
CA -1.70789 -18.3528 14.8747
CA -25.6097 -28.3846 46.7215
CA -30.0671 -27.0569 62.8644
CA -15.3276 -18.3529 40.609
CA -18.1797 -1.92839 47.8879
CA -12.1559 -16.7082 60.483
CA -36.9436 -4.65211 66.5149
CA -1.78268 -30.7743 45.5543
CA -24.0463 -6.89321 62.1547
CA -35.9283 -13.6668 63.4571
CA -22.1266 -1.72859 55.3981
CA -28.9821 -35.309 40.4506
CA -27.6448 2.03208 44.0356
CA -43.717 -20.363 84.1006
CA -2.03389 -15.2116 72.2413
CA -3.08246 -24.2624 58.7074
CA -14.192 -32.1219 70.2246
CA -31.5422 -14.8414 59.1273
CA -1.21605 -14.313 17.5955
CA -30.1125 -22.1437 63.3087
CA -26.049 -4.32092 45.825
CA -46.8887 -11.3032 74.2378
CA -19.5941 -22.5521 33.2131
CA -32.1146 -5.36101 55.5928
CA 9.86928 -25.1853 71.7146
CA -32.9893 -12.836 44.3209
CA -35.7834 -16.2902 54.2077
CA -35.6065 -10.1321 73.8319
CA -0.860311 0.571816 52.3121
CA -31.5794 -16.8717 37.8705
CA -23.688 -2.41977 47.4363
CA -10.0313 -23.3217 37.0687
CA -8.58675 -8.09926 83.6985
CA -30.7841 -29.677 67.4772
CA -20.6613 6.77159 47.8767
CA -48.0421 -13.0542 68.8671
CA 3.09952 -28.985 67.1289
CA -11.593 -11.2733 35.6234
CA -44.034 -25.3752 66.8942
CA -18.4958 -13.2548 81.2354
CA 3.44542 -15.2037 71.1179
CA -7.41227 -15.6035 66.865
CA -16.1954 -11.2964 82.4536
CA -31.8313 -36.8695 64.2697
CA -23.0206 -13.4235 40.3744
CA -34.7622 -3.00493 60.9521
CA -8.14796 -17.4376 64.6269
CA -32.7788 -37.4451 40.4687
CA -15.3948 -16.505 62.6369
CA -16.8534 -13.8934 84.9101
CA -20.941 -16.7104 36.1063
CA -11.2164 -13.9721 82.9288
CA -22.903 -10.0102 58.5078
CA -21.7194 -43.9486 64.2647
CA -35.4895 -10.7603 65.9516
CA -37.9942 -5.50332 59.8245
CA -46.806 -6.45783 67.4117
CA -25.1587 -42.5518 62.5442
CA -24.233 -31.0849 44.3151
CA -3.839 -10.5461 52.6937
CA -36.4191 -21.3262 47.7901
CA -26.5159 -35.0291 48.0427
CA -4.91064 -21.9138 67.1421
CA -18.6973 -5.51758 49.6385
CA -9.24413 -14.9074 68.4343
CA -3.11746 -21.5898 49.0124
CA -3.71046 -16.1063 51.8395
CA -19.43 -27.8093 44.2496
CA -44.1289 -25.7321 71.6369
CA -20.3521 -29.9747 46.9817
CA -38.6849 -22.8931 47.1619
CA -37.5519 -8.37206 52.0954
CA -19.2137 -31.7862 42.6057
CA 3.17385 -26.5721 53.2952
CA -41.1085 5.72814 67.8418
CA -6.50141 -27.2819 55.3625
CA -20.9128 -2.88776 50.5413
CA -14.4458 -23.4404 54.091
CA -9.38288 -4.27062 62.3252
CA -16.2513 -9.80829 60.6976
CA 3.81124 -6.73181 57.6424
CA -25.6326 -37.9109 49.7296
CA -40.1633 -22.143 63.8353
CA -18.3182 -1.25805 54.9044
CA -29.0744 -14.0937 44.2061
CA -8.87284 -10.2427 12.0498
CA -39.068 -27.8644 65.5457
