489

CA -32.4839 -15.262 66.3121
CA -26.5861 -6.00493 51.2489
CA -29.4343 -19.9493 35.8885
CA -25.8202 -8.46291 56.0317
CA -12.2123 -22.784 49.7073
CA -34.323 -33.8395 47.5946
CA -3.37787 -11.1316 55.7908
CA -13.1719 -22.2188 58.1181
CA -40.7751 -11.7584 79.1321
CA -16.727 -28.6874 46.6678
CA -11.8442 -5.92418 46.9665
CA -23.1029 -1.46372 35.8818
CA -9.581 -28.4316 52.9805
CA -30.2223 3.33831 42.2723
CA -28.616 4.85457 41.4198
CA -5.55595 -6.22658 50.5571
CA -3.05157 0.266638 57.548
CA -16.925 -1.35927 48.2145
CA -22.0334 -3.14262 37.4937
CA -47.1455 -26.2376 53.9158
CA -11.1559 -21.5434 47.2061
CA -3.83111 -3.71611 64.7521
CA -24.6624 -12.3924 69.6848
CA -25.0013 -7.10361 42.257
CA -12.9578 -10.2947 69.0596
CA -32.4417 -9.11448 72.035
CA -8.62039 -25.3681 67.5253
CA -29.8476 -31.3858 60.7727
CA -34.5504 -28.9161 70.147
CA -25.1692 -30.5024 78.5346
CA -19.9491 -27.2525 57.2774
CA -32.746 -24.5635 55.7078
CA -11.709 3.51606 34.4399
CA -9.4456 -22.2334 56.5292
CA 2.54083 -26.4448 49.4096
CA -16.9491 -17.2505 44.6723
CA -40.7026 -7.35578 43.9161
CA -16.5411 -5.89342 34.1216
CA -42.1712 -25.1588 79.4027
CA -40.893 -12.762 75.7399
CA -41.9741 -31.5824 51.4705
CA -37.103 -1.9594 64.112
CA -35.2236 1.31406 68.3642
CA -29.3527 -16.5679 38.3504
CA -18.3276 -8.60483 65.7967
CA 1.20639 -16.9327 67.5018
CA -25.2792 -22.5485 57.1603
CA -11.6604 -19.4794 60.602
CA -12.6582 -23.0036 53.6798
CA -22.3596 -26.0997 56.8998
CA 0.524581 -22.6282 64.434
CA -17.3176 -12.8546 75.0853
CA -36.331 -8.52871 40.4893
CA -11.0102 -33.9975 53.6022
CA -2.02445 -23.2485 61.3618
CA -16.5881 -25.9414 35.2708
CA -5.80416 -11.8549 63.7599
CA -30.8049 -38.9776 58.2603
CA -13.7243 -34.5161 74.1612
CA -23.401 -33.1463 46.0745
CA -5.52668 -7.25506 64.1208
CA 1.80493 -15.3396 56.7788
CA -1.67095 -17.0635 16.9428
CA -0.00353139 -11.6453 48.0512
CA -35.4198 -12.0627 51.8267
CA -38.7222 -31.2007 79.1847
CA -17.6497 -14.008 22.1756
CA -36.9406 -37.2444 57.2538
CA 3.73619 -14.0894 50.7341
CA -44.4292 -4.6867 59.4168
CA -3.03491 -15.7709 69.9649
CA -26.7972 -18.4694 59.0551
CA -46.7753 -27.3177 56.0837
CA -25.5219 -2.50315 34.9012
CA -19.3441 -37.5996 75.8026
CA -33.2089 -25.0915 61.7102
CA -30.187 -8.45859 60.8449
CA -41.9712 -10.9317 69.7451
CA 4.38011 -14.1989 52.931
CA -11.9848 -37.605 74.8158
CA -32.7895 -33.7158 77.9134
CA -33.2819 -8.71067 76.9399
CA 1.87669 -13.9426 53.7804
CA -32.473 -35.8882 66.9388
CA -23.7699 -9.71386 67.3051
CA -39.3018 -7.75067 45.4869
CA -18.5412 -20.5914 83.2462
CA -34.1037 -35.0058 62.2979
CA -34.9914 -33.5475 54.7532
CA -33.4084 -8.42362 47.0303
CA -31.0612 -11.6064 62.9635
CA -14.219 -25.4559 34.3472
CA -29.5124 -11.7939 73.4127
CA -30.9553 1.90831 40.5681
CA -37.9006 -35.6912 48.5762
CA -48.8242 -26.6723 69.6347
CA -10.8498 -15.4002 64.7822
CA -33.0694 -8.63114 44.3398
CA -27.3347 -1.97403 46.2633
CA -44.3354 -7.05927 58.4487
CA 3.70229 -12.2603 58.8077
CA -44.0291 -29.8149 54.7474
CA -33.2361 -17.4166 55.6225
CA -40.5832 -13.9709 72.2903
CA -39.8665 -25.5291 76.8988
CA -24.5184 -12.5085 52.9176
CA -22.5392 -27.716 70.8311
CA -7.2455 -2.21967 58.2917
CA -21.1325 0.442585 53.2963
CA -10.0256 -30.3292 52.7947
CA -23.2739 -28.1233 42.3424
CA -31.0746 -37.9515 38.4451
CA -17.4342 -40.3127 65.5256
CA -37.32 -43.0281 61.5478
CA -21.3094 -31.9329 32.8232
CA -29.2649 -23.773 54.7239
CA -27.8276 -32.0565 37.3395
CA -43.7065 -22.4362 73.5705
CA -8.43875 -13.344 31.5696
CA -42.0542 -28.8226 76.4404
CA -32.7003 -39.8669 41.6767
CA -6.00483 -14.0752 27.7204
CA -22.3434 0.418685 40.329
CA -21.2812 -5.05602 64.3
CA -4.12985 -18.3771 21.1951
CA -6.68848 -29.2274 48.7214
CA -37.3937 1.54621 66.8337
CA -32.2336 -34.4276 39.2764
CA -40.541 -30.9461 55.9065
CA -37.8247 -17.6734 67.9949
CA -21.6863 -31.0961 77.3614
CA -11.3345 -20.0597 29.2384
CA -30.6962 -27.5088 59.8683
CA -38.6715 -2.80436 65.5289
CA -22.0924 -17.4 32.0899
CA -13.7499 -20.8566 64.7311
CA -32.3296 -26.2803 56.8449
CA -10.8222 -2.58848 44.044
CA -30.8627 -13.2648 76.5853
CA -26.1862 -10.1111 55.3913
CA -38.1325 -36.344 53.5766
CA -18.7272 -33.7207 76.3618
CA -7.80998 -26.2069 46.6227
CA -0.765528 -10.6755 64.2633
CA -29.0856 -33.5004 67.4293
CA -20.8592 -21.7881 42.3016
CA -16.9955 -7.78501 68.0466
CA -36.3964 -37.5491 49.7235
CA -46.0173 -14.0643 55.5382
CA -25.5148 -10.9229 39.6244
CA -23.1872 -37.9324 47.8504
CA -14.3055 -14.9201 42.3386
CA -43.22 -12.493 52.141
CA -36.26 -11.0195 76.6858
CA -18.772 -27.5278 32.9388
CA -33.2908 -35.7531 50.2905
CA 1.90119 -8.40634 46.555
CA -28.7164 4.6954 38.179
CA -31.4892 -42.5675 64.9978
CA -29.7125 -32.3656 40.1947
CA -14.2293 -38.9413 79.7709
CA -8.35573 -30.1151 50.6849
CA -38.4645 -26.3199 57.422
CA -49.0451 -2.8462 59.4796
CA -21.7156 -16.045 48.5374
CA -34.8736 -31.4212 48.372
CA -20.8615 -28.3863 35.8254
CA -8.81044 -2.88917 65.9889
CA -31.6008 -35.5628 61.5349
CA -9.43538 -29.096 59.0253
CA -17.5864 -30.9305 56.8205
CA 3.6232 -9.55576 58.0534
CA -44.4262 -5.35233 57.6808
CA -34.3188 -41.0862 62.316
CA -34.5957 -4.12115 73.7676
CA -1.57141 -21.1034 70.2244
CA 2.29495 -22.8957 68.5349
CA -8.51655 -12.9268 10.2891
CA -35.3075 -19.8258 69.9285
CA -32.4523 -29.2094 37.4581
CA -15.6723 -10.1017 56.8959
CA -11.7018 -16.8705 73.5617
CA -40.8453 -28.3483 55.2698
CA -33.1356 -1.89073 66.7756
CA -18.4184 -1.57083 51.2299
CA -37.6215 -25.2215 69.7345
CA -43.1852 -25.2492 51.8684
CA -13.3218 -21.0212 60.7625
CA -26.2545 -0.286047 39.4015
CA -14.5686 -2.35397 52.5062
CA -36.5777 -28.5018 74.0852
CA -46.2247 -14.4355 74.1067
CA -14.6492 3.324 52.4288
CA -1.41109 -23.2634 49.6409
CA -26.72 -9.78089 77.3199
CA -13.9311 -13.5009 24.8374
CA -26.8398 -25.8828 47.7342
CA -15.0901 -21.9363 36.6967
CA -35.2243 -12.6402 53.6449
CA -36.0153 -30.2066 71.3602
CA -1.24087 -8.38292 65.1199
CA -24.4266 -34.9083 75.975
CA -35.9261 -37.7683 54.5205
CA -30.4544 -4.5579 45.4022
CA -12.1993 -16.0987 69.2858
CA -20.1979 -32.3181 74.9586
CA -11.0776 -18.601 66.1498
CA -24.2838 -9.14423 55.1626
CA -34.2727 -8.8916 60.8808
CA -3.58897 -20.3687 70.8015
CA -43.131 -17.2335 49.7744
CA -22.5494 10.9526 48.434
CA -24.8423 -22.0639 68.419
CA -36.3706 -38.1756 78.3482
CA -14.9817 -29.3871 42.6261
CA -29.5436 -35.2634 50.7761
CA -13.2084 -5.47336 57.1444
CA -13.4984 0.914238 53.1149
CA -21.1845 -24.8397 32.5988
CA -33.4148 -6.69289 60.5953
CA -6.27892 -16.7425 11.1107
CA -25.5517 -20.1016 67.4601
CA -30.4991 4.87536 41.2259
CA -14.7317 -9.43904 49.3792
CA -19.5109 1.48426 44.8784
CA -41.1245 -20.8497 76.1953
CA -27.2178 -36.2221 49.5303
CA -42.2796 -5.58017 55.6482
CA -11.002 -2.79287 49.4526
CA -7.03004 -19.9192 72.4412
CA -3.6915 -15.9203 17.2707
CA -38.9733 6.43777 68.4232
CA -3.16196 -19.9296 10.491
CA -31.2392 -4.67115 43.5114
CA -38.2734 -32.2119 51.552
CA -35.8267 -33.2744 74.9668
CA -51.2119 -29.351 70.3273
CA -6.10129 -5.61607 59.0837
CA -28.5125 -36.4103 72.2622
CA -30.2854 -30.9506 62.8616
CA -23.5495 -39.9056 66.9185
CA -17.9283 -27.477 47.2638
CA -24.6366 -33.4017 70.8559
CA -40.0262 1.11928 59.3611
CA -13.0621 1.69649 39.3953
CA -9.84676 0.628382 49.163
CA -19.0359 -27.7402 67.1331
CA -21.4136 -34.9321 35.8066
CA -25.0414 -28.6947 44.4952
CA -27.0592 -38.1855 69.5786
CA -31.8085 -0.147202 43.2948
CA -48.561 -24.8144 65.8278
CA -17.0889 -14.6854 39.4278
CA -42.2109 -18.2611 66.2027
CA -16.3148 -18.8485 80.864
CA -13.5339 -22.7139 48.237
CA -23.3029 -29.2671 69.1305
CA -30.7323 -2.12621 32.9752
CA -0.897824 -20.27 19.6215
CA -35.7181 -34.0729 45.2322
CA -19.9724 -42.4087 66.7615
CA -45.2671 -13.5361 77.9488
CA -45.8085 -32.5379 50.0631
CA -5.38233 -32.3171 50.8903
CA -16.7002 0.811549 51.4035
CA -23.3328 -1.34391 37.9293
CA -33.3767 -4.07947 68.3014
CA -18.4913 -24.0722 34.129
CA -26.6145 -12.9442 44.2897
CA -24.192 -28.2067 48.6975
CA -21.3479 -19.6867 46.5878
CA -41.3087 -9.09041 75.242
CA -45.8917 -9.3442 53.9805
CA -38.5557 -6.02566 72.0438
CA -30.5614 -21.0683 47.6605
CA -13.6805 -17.5555 84.1162
CA -16.8097 -13.5774 58.7944
CA -40.8081 4.04832 69.1717
CA -12.8939 4.47497 48.531
CA -30.6273 -5.71276 42.1262
CA -11.2472 -11.8513 32.0344
CA -8.80959 -11.4728 19.0834
CA -13.8986 -12.3265 31.5166
CA -29.6748 -23.5918 52.9003
CA -17.4461 -15.6826 32.6772
CA -15.2356 -4.88968 41.7884
CA -9.45636 -35.2311 51.9442
CA -22.9762 -19.2531 33.9793
CA -7.6335 -3.42632 62.4483
CA -11.3301 -8.3221 34.0957
CA -13.71 -10.4135 56.0868
CA -3.99937 -12.5618 69.0479
CA -27.9661 -7.90664 55.7081
CA -11.6165 -18.6913 63.3099
CA -12.9073 -30.2549 48.52
CA -14.5884 -14.5535 18.371
CA -13.6396 -16.1295 26.7727
CA -13.5764 -4.13857 38.6662
CA -38.1914 -28.857 72.15
CA -33.5473 -2.6857 41.159
CA -32.7921 -7.59829 66.8152
CA -6.07871 -17.0395 52.8637
CA -42.1557 -27.0776 77.4687
CA -4.83642 -13.2832 52.6346
CA 0.112957 -19.2294 53.4584
CA -9.18293 -18.3605 62.7813
CA -40.7674 -36.7933 46.3335
CA -28.2427 -29.6264 65.3784
CA -15.5582 -7.81109 35.2868
CA 0.2276 -19.811 68.5584
CA -35.1753 -2.50743 60.0695
CA -29.595 -37.4265 70.8691
CA -25.8503 -36.1034 55.5978
CA -32.1044 -20.1572 59.6821
CA -34.9019 -33.2051 71.6839
CA -22.7882 4.10115 37.7928
CA -11.2569 -18.0657 76.858
CA -48.0429 -22.2828 55.9444
CA -27.5834 -14.1415 50.8812
CA -36.6186 -10.8491 58.8466
CA -15.2939 -8.13151 58.8167
CA -32.02 -11.8909 75.0349
CA -9.96087 -13.7678 11.2224
CA -28.6002 -32.4975 42.3996
CA -47.9024 -0.56295 56.5736
CA -21.1081 -0.44244 38.7782
CA -11.1985 2.34766 52.4096
CA -27.3786 -21.1992 70.6302
CA -15.8198 0.893203 56.748
CA -47.7039 -25.09 56.0944
CA -11.6877 -20.1177 51.9554
CA -39.9171 -15.1854 77.6526
CA -9.30284 -30.5446 57.4908
CA 3.16259 -25.9999 70.0029
CA -51.566 -12.6106 76.0424
CA -21.8066 -7.57041 60.3074
CA -19.4056 -31.9267 71.0244
CA -48.0549 -15.6051 77.5721
CA -13.3955 -27.4037 54.2244
CA -31.989 -27.1207 72.2381
CA -3.57762 -11.1124 14.3276
CA -18.6253 -28.402 36.4249
CA -17.0182 -28.1322 25.0827
CA -43.7647 -21.1313 51.037
CA -41.3919 -22.2939 70.532
CA -19.7368 4.09109 44.2159
CA -38.8158 -20.3047 68.6844
CA -36.3082 -11.8135 64.0162
CA -50.771 -3.29044 61.3232
CA -19.6223 -13.8074 42.8043
CA -7.16412 -21.1306 68.5426
CA -8.27162 -30.1912 48.7211
CA -48.3824 -20.3957 64.203
CA -30.0038 -16.9175 47.526
CA -5.04639 -25.9637 49.9899
CA -26.775 -21.4647 63.2912
CA -20.2371 -32.0009 68.8764
CA -27.4937 -31.7441 35.4594
CA -28.8668 -37.7545 69.1877
CA -13.5518 -9.83599 27.7482
CA -11.3572 -27.0098 41.5443
CA -47.144 -7.21928 59.7307
CA -29.733 -39.6824 68.3058
CA -14.193 -4.48546 55.9634
CA -8.45866 -12.6762 67.896
CA -8.96694 -24.2389 48.2812
CA -24.0921 -22.4076 43.4794
CA -40.8404 -16.8307 75.5541
CA -34.1641 -9.96016 73.7831
CA -31.2873 -5.74306 48.4114
CA -13.9407 -28.6803 37.8558
CA -26.1437 -4.93525 57.0327
CA -32.9448 -25.8968 70.4928
CA -19.3834 -34.1708 73.7919
CA -28.5025 -34.205 37.4253
CA -24.2816 -21.6539 33.9322
CA -34.1457 -18.8314 68.6357
CA -21.4508 -15.3988 65.1612
CA 1.85428 -18.4905 66.4454
CA -4.43645 -29.6046 47.584
CA 1.99941 -10.9049 54.3074
CA -6.54413 -14.1221 14.0919
CA -11.7469 -2.37325 56.7433
CA -11.6548 -4.6423 67.401
CA -11.6793 -11.9994 17.5098
CA -29.1801 -8.72312 38.3363
CA -35.9124 -15.8747 52.5923
CA -16.8103 -14.1887 68.7062
CA -24.3235 -16.0839 35.7362
CA -32.5514 3.14845 37.9924
CA -13.0045 -24.4005 49.4134
CA -31.2664 -15.9098 62.7455
CA -26.2174 -34.828 51.3431
CA -41.7021 -13.5552 66.8508
CA -36.4293 -37.9322 76.5503
CA -10.3486 -24.8677 58.629
CA -8.7008 -27.7392 47.6927
CA -14.6616 -16.9902 74.4781
CA -28.8311 -15.7722 70.7804
CA -15.82 -45.1685 67.4968
CA -1.45621 -9.23985 55.3376
CA -42.5968 -5.77883 64.2407
CA -13.0693 -10.9633 54.406
CA -30.5307 -10.3404 61.6301
CA -2.17476 -24.559 52.1245
CA -31.7303 -18.8405 48.7715
CA -13.6533 -1.07504 37.7747
CA -22.6497 -17.4935 34.2088
CA -20.3444 -23.6681 69.3313
CA 1.03062 -10.9867 50.087
CA -25.2411 -25.0348 44.0758
CA -37.917 -30.119 61.5979
CA -0.224217 -30.1032 54.4427
CA -5.58014 -26.3968 46.9284
CA -39.1179 -5.66852 54.7978
CA -9.76448 -12.3294 17.2852
CA -10.4756 -7.16284 47.4731
CA -19.5818 -11.8407 66.0892
CA -41.1926 -22.8411 49.5222
CA -14.8195 -23.9691 37.0011
CA -19.6389 -25.5579 27.8656
CA -9.45222 -8.11775 9.3617
CA -21.5506 -12.9627 62.3137
CA -9.95559 -21.6925 53.1897
CA -28.9075 -3.87976 42.9177
CA -10.569 -31.4041 50.5673
CA 6.83046 -25.8094 70.8805
CA -32.9893 -12.836 44.3209
CA -5.11316 -3.5929 61.7108
CA -47.91 -13.8182 73.9212
CA -19.0499 -26.3389 70.6098
CA -13.534 -13.9775 53.7367
CA -24.952 -31.8133 46.6086
CA -10.0313 -23.3217 37.0687
CA -15.9402 -42.216 77.7556
CA -17.968 -9.63929 55.6202
CA -20.6613 6.77159 47.8767
CA -22.6537 -7.49908 42.3208
CA -38.2437 -19.5694 57.2997
CA -21.9398 -33.668 32.359
CA -24.0149 -33.9234 47.8968
CA -9.75557 -23.2846 49.6085
CA -12.4351 -17.3735 65.7522
CA -35.8598 -21.5526 51.6932
CA -43.5917 -33.6746 51.3882
CA -25.7065 -27.333 41.1504
CA -41.4106 -10.2759 57.3403
CA -5.90685 -8.0163 52.5409
CA -54.6509 -9.09865 77.0897
CA 6.0348 -7.28805 48.8823
CA -8.1236 -9.28903 33.7744
CA -16.8534 -13.8934 84.9101
CA -19.2299 -21.7573 79.617
CA -23.0467 -11.4891 32.2341
CA -38.7366 -0.954269 64.931
CA -21.7194 -43.9486 64.2647
CA -10.3265 -13.0699 63.696
CA -42.0387 -7.5091 55.7499
CA -6.75674 -16.8572 72.4468
CA -25.1587 -42.5518 62.5442
CA -31.5619 -36.1764 59.1568
CA -40.9999 0.42292 62.6449
CA -23.8274 -38.3181 34.962
CA 1.20105 -12.733 57.1835
CA -23.9647 -25.3362 46.8446
CA -25.5672 -9.36746 36.5281
CA -23.1152 -10.037 30.8261
CA 2.72673 -21.2161 50.582
CA -26.9929 -29.965 78.0521
CA -21.7717 -38.8917 63.6033
CA -44.1289 -25.7321 71.6369
CA -20.3521 -29.9747 46.9817
CA -14.1617 -21.6526 78.1584
CA -41.281 -17.7579 69.7161
CA -27.7154 -29.1989 45.1006
CA -34.2541 -23.2293 54.8328
CA -36.9741 -12.2354 42.2788
CA 0.544425 -24.9276 52.2287
CA -21.0852 -12.7927 64.1537
CA -21.0823 -29.625 45.2527
CA 3.75807 -11.103 56.6422
CA -13.163 -6.80319 67.7514
CA -24.5865 -16.9162 38.0213
CA -25.6326 -37.9109 49.7296
CA -27.012 -3.90493 46.7798
CA -18.3182 -1.25805 54.9044
CA -10.2933 -26.1333 67.5753
CA -18.7929 -18.348 82.1144
CA -29.3941 -25.8964 65.6821
