489

CA -32.4839 -15.262 66.3121
CA -26.5861 -6.00493 51.2489
CA -17.5913 -27.6257 53.1698
CA -25.8202 -8.46291 56.0317
CA -12.2123 -22.784 49.7073
CA -34.323 -33.8395 47.5946
CA -3.37787 -11.1316 55.7908
CA -3.89566 -17.3962 69.8269
CA -24.3556 -18.8694 65.7797
CA -33.9658 -23.7824 70.1267
CA -33.0249 -28.2267 43.3953
CA -23.1029 -1.46372 35.8818
CA -19.1106 -23.3154 89.6359
CA -18.1845 -8.07061 33.6105
CA -28.616 4.85457 41.4198
CA -5.55595 -6.22658 50.5571
CA -27.4493 -21.795 59.0017
CA -16.925 -1.35927 48.2145
CA -26.2577 -3.26965 48.4606
CA -47.1455 -26.2376 53.9158
CA -22.3864 2.32014 40.0223
CA -6.52457 -25.7161 32.8255
CA -24.6624 -12.3924 69.6848
CA -35.915 -12.0194 70.8878
CA -12.9578 -10.2947 69.0596
CA -32.4417 -9.11448 72.035
CA -36.0956 0.193937 66.938
CA -29.8476 -31.3858 60.7727
CA -8.44053 -28.6656 56.3586
CA -25.1692 -30.5024 78.5346
CA -19.9491 -27.2525 57.2774
CA -25.2635 -17.5087 62.1718
CA -11.709 3.51606 34.4399
CA -11.9247 -20.993 90.8552
CA 2.54083 -26.4448 49.4096
CA -16.9491 -17.2505 44.6723
CA -40.7026 -7.35578 43.9161
CA -16.5411 -5.89342 34.1216
CA -42.1712 -25.1588 79.4027
CA -40.893 -12.762 75.7399
CA -19.991 5.81543 42.907
CA -6.32223 -11.1721 17.418
CA 1.14383 -31.8064 57.1029
CA -29.3527 -16.5679 38.3504
CA -0.132276 -18.5306 69.9046
CA -15.9568 -19.8938 89.2561
CA -25.2792 -22.5485 57.1603
CA -11.2728 -30.065 56.8191
CA -33.1982 -25.072 67.2535
CA -54.5817 -13.4781 74.7354
CA -25.7486 -10.3387 70.163
CA -17.3176 -12.8546 75.0853
CA -36.331 -8.52871 40.4893
CA -11.2938 -4.19746 44.8871
CA -2.02445 -23.2485 61.3618
CA -16.5881 -25.9414 35.2708
CA -37.5243 -27.2243 69.3127
CA -30.8049 -38.9776 58.2603
CA -23.9186 -4.23577 41.4996
CA -35.4842 -38.4368 76.7819
CA -5.52668 -7.25506 64.1208
CA 1.80493 -15.3396 56.7788
CA -13.0507 -7.85404 56.6243
CA -32.7391 -29.4569 74.9735
CA -31.4263 -27.0562 66.2263
CA -18.4098 -16.4911 78.0334
CA -17.6497 -14.008 22.1756
CA -42.1586 -19.204 55.9039
CA 3.73619 -14.0894 50.7341
CA -44.4292 -4.6867 59.4168
CA -26.9024 -15.5967 37.9652
CA -26.7972 -18.4694 59.0551
CA -27.784 -16.4668 62.642
CA -25.5219 -2.50315 34.9012
CA -33.2064 -21.8679 37.8614
CA -33.2089 -25.0915 61.7102
CA -30.187 -8.45859 60.8449
CA -41.9712 -10.9317 69.7451
CA 4.38011 -14.1989 52.931
CA -29.9755 -32.7367 56.2659
CA -32.7895 -33.7158 77.9134
CA -19.5765 -25.818 32.4113
CA -28.0001 -39.983 79.1616
CA -32.473 -35.8882 66.9388
CA -35.5063 -6.08536 71.7367
CA -39.3018 -7.75067 45.4869
CA -27.7386 -34.5983 69.9397
CA -34.1037 -35.0058 62.2979
CA -12.8161 -34.9375 71.6709
CA -14.5722 -23.3697 59.347
CA -14.6611 -30.26 44.1922
CA -14.219 -25.4559 34.3472
CA -17.9647 -31.835 46.5666
CA -17.868 -34.5677 44.9175
CA -42.4905 -25.9198 75.0319
CA -48.8242 -26.6723 69.6347
CA -28.1884 -39.8719 69.1514
CA -33.0694 -8.63114 44.3398
CA -24.4966 -24.4188 77.5576
CA -26.8264 -27.3198 43.0142
CA -33.7273 -27.6408 64.0088
CA -44.0291 -29.8149 54.7474
CA -33.2361 -17.4166 55.6225
CA -17.9414 -28.3636 43.5124
CA -39.8665 -25.5291 76.8988
CA -24.5184 -12.5085 52.9176
CA -25.2474 -40.3296 65.98
CA -22.2199 -29.6687 71.2851
CA -29.4916 -22.7951 62.1225
CA -10.0256 -30.3292 52.7947
CA -21.2716 -29.6379 38.7399
CA -10.0828 -5.05037 59.6667
CA -20.4496 -35.1922 33.75
CA -37.32 -43.0281 61.5478
CA -21.3094 -31.9329 32.8232
CA -29.2649 -23.773 54.7239
CA -8.58846 -23.8528 36.012
CA -43.7078 -28.288 73.835
CA -43.0808 -23.0225 51.8549
CA -15.4961 -23.6266 53.2582
CA -22.3317 -7.06858 65.6572
CA -13.4753 -15.3526 62.0075
CA -22.3434 0.418685 40.329
CA -40.285 -17.7833 77.7626
CA -4.12985 -18.3771 21.1951
CA -25.4662 -32.642 57.2666
CA -37.3937 1.54621 66.8337
CA -37.8557 -14.7142 75.1094
CA -15.2968 -7.95203 41.4643
CA 4.96155 -12.7232 51.6284
CA -21.6863 -31.0961 77.3614
CA -17.6068 1.49451 38.9084
CA -30.6962 -27.5088 59.8683
CA -2.28433 -26.3815 55.0179
CA -7.08717 -3.6425 47.452
CA -5.9782 1.72166 48.1816
CA 2.77289 -16.7103 72.74
CA -41.2841 -29.6325 57.1442
CA -9.64595 -1.80951 57.143
CA -3.50125 -5.93546 50.2018
CA -38.1325 -36.344 53.5766
CA -0.960022 -14.5819 70.6761
CA -23.1843 -6.43857 59.8387
CA -0.765528 -10.6755 64.2633
CA -27.221 -10.0314 39.0138
CA -20.8592 -21.7881 42.3016
CA -44.0094 -31.8448 73.014
CA -36.3964 -37.5491 49.7235
CA -30.9336 -36.9442 78.597
CA -45.4803 -11.7498 74.9795
CA -12.3278 -37.023 76.5487
CA -25.2583 -5.99884 42.9388
CA -43.22 -12.493 52.141
CA -27.7554 -19.2178 34.5853
CA -45.6702 -18.3753 49.8093
CA -33.2908 -35.7531 50.2905
CA -33.5212 -15.2584 54.4289
CA -15.6375 -5.87112 70.1062
CA -8.54406 -17.6488 10.4412
CA -6.11558 -27.39 52.8922
CA -14.2293 -38.9413 79.7709
CA -8.35573 -30.1151 50.6849
CA -38.4645 -26.3199 57.422
CA -15.2889 -16.4868 78.7451
CA -49.1637 -0.242411 59.8161
CA -26.1795 -6.35552 59.0205
CA -20.8615 -28.3863 35.8254
CA -32.1246 -2.52217 60.7642
CA -37.9353 -4.76176 62.9592
CA -9.43538 -29.096 59.0253
CA -44.0299 -8.50685 57.0634
CA -6.60722 -7.1415 57.5176
CA -17.9544 -5.6406 66.9057
CA -34.3188 -41.0862 62.316
CA -50.3374 -0.32338 57.7846
CA -7.30556 -23.2464 66.4478
CA 6.45484 -12.7254 48.8856
CA -34.1334 -29.8555 69.4945
CA -10.6935 -2.87801 59.1205
CA -32.4523 -29.2094 37.4581
CA -15.6723 -10.1017 56.8959
CA -11.7018 -16.8705 73.5617
CA -40.8453 -28.3483 55.2698
CA -33.1356 -1.89073 66.7756
CA -32.991 -35.0663 52.3283
CA -39.7598 -10.8953 70.2592
CA -43.1852 -25.2492 51.8684
CA -9.78179 -5.92816 66.4926
CA -16.1501 -1.85807 42.2698
CA -12.1625 -31.1385 44.6027
CA -36.5777 -28.5018 74.0852
CA -37.2076 -29.068 58.4659
CA -37.476 -32.2686 61.2193
CA -22.9703 -24.2929 68.8061
CA -41.6202 -22.3078 74.2822
CA -13.9311 -13.5009 24.8374
CA -22.6472 -37.812 66.4873
CA -8.85304 -3.69941 50.0289
CA -21.9586 -18.0534 36.9926
CA -31.2912 -22.1158 46.2327
CA -1.24087 -8.38292 65.1199
CA -46.3097 -22.1316 57.4469
CA -34.8832 -18.5993 44.1369
CA -30.4544 -4.5579 45.4022
CA -37.7582 -41.1961 40.6243
CA -20.789 -13.9828 66.1184
CA -25.4375 -33.2557 66.5403
CA -27.4608 -28.596 75.9686
CA -18.2976 -43.5072 67.5862
CA -32.2144 -17.1415 48.4043
CA -43.131 -17.2335 49.7744
CA -22.8786 -20.4559 78.1739
CA -25.2984 -17.1926 73.6042
CA -36.3706 -38.1756 78.3482
CA -14.9817 -29.3871 42.6261
CA -31.1936 -34.5603 77.2874
CA -13.4968 -2.81562 40.1945
CA -48.406 -0.684595 57.6862
CA -9.07056 -10.9363 66.4945
CA -23.548 -30.8397 70.5309
CA -6.27892 -16.7425 11.1107
CA -9.87359 -34.4115 50.2912
CA -23.1952 3.40224 36.1812
CA -47.7472 -22.4808 60.5181
CA -19.5109 1.48426 44.8784
CA -43.6705 -9.05647 54.7396
CA -27.2178 -36.2221 49.5303
CA -38.336 -24.021 76.9881
CA -4.29034 -11.7459 16.7513
CA -7.03004 -19.9192 72.4412
CA -3.6915 -15.9203 17.2707
CA -38.9733 6.43777 68.4232
CA -3.16196 -19.9296 10.491
CA -31.2392 -4.67115 43.5114
CA -38.2734 -32.2119 51.552
CA -19.6212 -33.3716 36.6273
CA -51.2119 -29.351 70.3273
CA -14.5007 -1.03215 39.889
CA -40.9082 2.72379 65.7203
CA -30.2854 -30.9506 62.8616
CA -23.5495 -39.9056 66.9185
CA -26.7025 -25.2716 44.7693
CA -16.5142 -30.5754 42.216
CA 3.10333 -10.8005 61.0482
CA -13.0621 1.69649 39.3953
CA -9.84676 0.628382 49.163
CA -14.2625 -13.8489 85.4426
CA -21.4136 -34.9321 35.8066
CA -30.197 -17.3585 48.3084
CA -27.0592 -38.1855 69.5786
CA -7.17271 -1.57334 58.4334
CA -18.0365 -31.5082 56.5261
CA -17.0889 -14.6854 39.4278
CA -20.1285 -21.3083 36.3159
CA -9.99652 -9.24105 64.0898
CA -13.5339 -22.7139 48.237
CA -22.7836 -19.6528 45.1343
CA -48.4227 -25.862 60.0769
CA -0.897824 -20.27 19.6215
CA -21.2105 -27.7333 30.2225
CA -19.9724 -42.4087 66.7615
CA -45.2671 -13.5361 77.9488
CA -30.1653 -28.0939 37.5545
CA -28.4465 -0.616824 42.8156
CA -16.7002 0.811549 51.4035
CA -23.3328 -1.34391 37.9293
CA -36.0439 -13.7428 41.3395
CA -6.46481 -22.7637 72.6209
CA -35.3654 -38.9576 49.1974
CA -33.2004 -6.47554 47.7216
CA -21.3479 -19.6867 46.5878
CA -18.8615 -9.41133 54.0278
CA -18.2812 -13.153 54.9581
CA -38.5557 -6.02566 72.0438
CA -30.5614 -21.0683 47.6605
CA -13.6805 -17.5555 84.1162
CA -10.8459 -25.4928 37.7976
CA -40.8081 4.04832 69.1717
CA -12.8939 4.47497 48.531
CA -27.7907 -35.3749 54.7394
CA -35.8272 -28.0712 59.3574
CA -8.80959 -11.4728 19.0834
CA -13.8986 -12.3265 31.5166
CA -29.6748 -23.5918 52.9003
CA -17.4461 -15.6826 32.6772
CA -6.67106 -8.47418 62.5959
CA -19.2468 -20.2001 75.751
CA -26.5221 -12.9633 52.6856
CA -7.6335 -3.42632 62.4483
CA -11.3301 -8.3221 34.0957
CA -13.71 -10.4135 56.0868
CA -20.7469 -9.20413 39.4163
CA -25.9464 -9.22214 40.534
CA -10.828 -2.2932 62.8675
CA -28.5701 -32.1469 58.1033
CA -14.5884 -14.5535 18.371
CA -22.9685 -24.8462 54.7362
CA -13.5764 -4.13857 38.6662
CA -21.0124 2.89897 49.6876
CA -14.298 -19.9772 54.5209
CA 0.628422 -26.7932 48.4223
CA -8.13388 -0.747017 63.4817
CA -42.1557 -27.0776 77.4687
CA -35.509 -0.400276 59.897
CA -32.9934 -17.1924 58.5494
CA -10.2743 -20.0503 59.5552
CA -11.1341 -33.2612 53.9334
CA -32.1998 -8.9901 69.095
CA -18.8082 -21.223 85.7983
CA -23.1173 -22.5726 71.726
CA -42.5512 -16.5465 76.811
CA -9.89339 -14.466 18.0092
CA -18.8125 -40.7722 73.6065
CA -36.344 -14.4106 64.8428
CA -45.1296 -12.123 79.9462
CA -22.7882 4.10115 37.7928
CA -28.3232 -37.1136 76.9783
CA -48.0429 -22.2828 55.9444
CA -27.5834 -14.1415 50.8812
CA -13.149 -23.7241 51.151
CA -11.5273 -29.0602 41.6905
CA -25.3569 -4.52805 50.8664
CA -9.96087 -13.7678 11.2224
CA -15.3392 -1.66559 50.7839
CA -37.9347 -2.29458 62.1149
CA 0.54555 -26.754 53.698
CA -11.1985 2.34766 52.4096
CA -4.45969 -29.7086 51.7532
CA -8.55999 -6.0688 57.4158
CA -9.31425 -31.8567 51.1092
CA -11.6877 -20.1177 51.9554
CA -21.2351 2.71327 46.9409
CA -9.30284 -30.5446 57.4908
CA -26.6306 -30.5362 46.4853
CA -51.566 -12.6106 76.0424
CA -21.8066 -7.57041 60.3074
CA -19.4056 -31.9267 71.0244
CA -16.2842 -22.672 40.5986
CA -13.3955 -27.4037 54.2244
CA -6.2526 -12.7393 62.6621
CA -13.1305 -8.07447 66.2717
CA -40.8261 0.654611 65.3299
CA -33.4419 -27.0323 53.8797
CA -43.7647 -21.1313 51.037
CA -41.3919 -22.2939 70.532
CA -30.3189 -36.6983 81.8323
CA -22.8196 -24.758 89.4691
CA -36.3082 -11.8135 64.0162
CA -25.5556 -29.801 43.6786
CA -19.6223 -13.8074 42.8043
CA -7.16412 -21.1306 68.5426
CA -20.2124 -42.0626 74.5492
CA -12.9299 0.375082 36.8735
CA -27.5613 -14.0887 47.6847
CA -5.04639 -25.9637 49.9899
CA -30.9671 -21.4124 40.8023
CA -17.3348 -20.6896 81.0387
CA -23.5527 -30.2572 82.4863
CA -28.8668 -37.7545 69.1877
CA -22.5882 -11.6817 59.5984
CA -11.3572 -27.0098 41.5443
CA -47.144 -7.21928 59.7307
CA -35.9433 -4.09079 69.5967
CA -19.4157 -24.094 73.5577
CA -16.3025 -28.9018 29.1933
CA -8.96694 -24.2389 48.2812
CA -24.0921 -22.4076 43.4794
CA -29.1601 7.20883 41.8717
CA -34.1641 -9.96016 73.7831
CA -31.2873 -5.74306 48.4114
CA -41.0674 -20.7257 68.0656
CA -48.7044 -27.051 56.9642
CA -32.9448 -25.8968 70.4928
CA -19.786 5.69151 40.437
CA 2.08565 -16.758 48.267
CA -24.2816 -21.6539 33.9322
CA -32.184 -6.56439 71.9838
CA -13.3112 -9.08639 59.1528
CA -15.5338 -30.2472 72.7672
CA -25.4333 -22.8082 53.0393
CA 1.99941 -10.9049 54.3074
CA -6.54413 -14.1221 14.0919
CA -8.24699 -27.0835 57.4396
CA -28.5865 -6.58509 60.275
CA -35.4422 -11.8331 61.6383
CA -7.86428 -12.0279 8.32921
CA -10.5456 -18.3218 64.7101
CA -16.8103 -14.1887 68.7062
CA -8.40515 -6.62181 6.38687
CA -25.5599 -4.34703 59.6896
CA -37.3291 -37.5693 44.0753
CA -31.2664 -15.9098 62.7455
CA -14.7487 -15.3888 27.9655
CA -4.97504 -9.12616 54.6685
CA -26.5436 -17.385 60.5137
CA -11.2077 -23.4928 38.5728
CA -8.0598 -10.2386 67.9691
CA -14.6616 -16.9902 74.4781
CA -28.8311 -15.7722 70.7804
CA -15.82 -45.1685 67.4968
CA -26.8579 -32.7533 68.7878
CA -33.4429 -21.7153 65.4633
CA -45.9295 -4.36811 57.1384
CA -30.5307 -10.3404 61.6301
CA -14.7165 -14.5215 65.4603
CA -31.7303 -18.8405 48.7715
CA -31.843 -29.9877 44.4057
CA -22.6497 -17.4935 34.2088
CA -10.9483 -6.95155 8.57838
CA 1.03062 -10.9867 50.087
CA -38.4861 -34.7742 45.9282
CA -14.2712 -14.7636 87.7399
CA -28.584 -8.79832 71.3303
CA -31.1363 -34.1492 59.1889
CA -9.07045 -18.5525 63.0045
CA -9.76448 -12.3294 17.2852
CA -36.2761 -36.8267 46.0238
CA -14.1263 -9.82368 22.445
CA -41.1926 -22.8411 49.5222
CA -14.8195 -23.9691 37.0011
CA -19.6389 -25.5579 27.8656
CA 3.21283 -11.9864 50.3392
CA -21.5506 -12.9627 62.3137
CA -24.6468 -23.955 41.5171
CA -3.48951 -27.8164 53.2609
CA -23.6939 -21.8189 55.6032
CA 3.2015 -30.709 55.4468
CA -31.6596 -12.1068 47.1252
CA -5.11316 -3.5929 61.7108
CA -47.91 -13.8182 73.9212
CA -24.2651 -2.45729 64.4966
CA -6.75913 -18.089 61.7137
CA -24.952 -31.8133 46.6086
CA -30.7779 -8.61567 46.8775
CA -15.9402 -42.216 77.7556
CA -17.968 -9.63929 55.6202
CA -9.25325 -10.0056 8.99372
CA -22.6537 -7.49908 42.3208
CA -38.2437 -19.5694 57.2997
CA -27.381 -3.00356 32.6366
CA -37.11 -13.6994 57.9396
CA -36.0566 -13.5487 76.8244
CA -46.9653 -28.1922 58.7181
CA -17.346 -8.99225 41.3993
CA -3.71742 -8.2356 63.9242
CA -25.7065 -27.333 41.1504
CA -41.4106 -10.2759 57.3403
CA -47.5757 -7.40648 61.9191
CA -54.6509 -9.09865 77.0897
CA -29.4224 -15.5599 36.402
CA -2.66741 -21.2201 61.6809
CA -16.8534 -13.8934 84.9101
CA -19.2299 -21.7573 79.617
CA -23.0467 -11.4891 32.2341
CA -25.5799 -13.954 68.5638
CA -28.4489 -6.08269 45.0806
CA -24.8616 -13.479 29.5486
CA -42.0387 -7.5091 55.7499
CA -6.75674 -16.8572 72.4468
CA -25.1587 -42.5518 62.5442
CA -34.8799 -29.8441 43.566
CA -40.9999 0.42292 62.6449
CA -15.8209 -4.10405 68.2555
CA 1.20105 -12.733 57.1835
CA -19.4383 -4.66667 68.0407
CA -25.5672 -9.36746 36.5281
CA -23.1152 -10.037 30.8261
CA -15.4445 -28.8178 54.6021
CA -38.3499 -36.8832 49.4965
CA -15.94 -13.8685 79.0944
CA -44.1289 -25.7321 71.6369
CA -20.3521 -29.9747 46.9817
CA -15.263 -14.6255 55.4273
CA -41.281 -17.7579 69.7161
CA -10.5692 -24.9725 74.1164
CA -13.7606 -18.6583 72.1706
CA -28.6781 -26.43 40.4729
CA 0.544425 -24.9276 52.2287
CA -22.5377 -25.2679 73.1947
CA -21.0823 -29.625 45.2527
CA -10.8156 -17.706 61.1088
CA -13.163 -6.80319 67.7514
CA -36.6603 -40.2583 50.7219
CA -40.0168 -1.81324 66.1629
CA -30.7323 -13.6558 37.2554
CA -36.7374 -37.7378 75.0455
CA -23.4773 -18.9227 36.4175
CA -19.2711 -3.36205 47.6966
CA -29.3941 -25.8964 65.6821
