489

CA -34.3464 -38.8174 46.0635
CA -23.3569 -39.6075 64.9857
CA -34.2065 -36.1794 57.5312
CA -23.7188 -4.11379 60.0428
CA -32.8278 -41.4009 65.2479
CA -19.3519 -11.0187 36.0051
CA -22.7845 -5.12038 67.0542
CA -1.7617 -34.345 50.1616
CA -18.7007 -17.4624 41.0319
CA -18.4822 -16.4138 61.137
CA -17.1981 -12.3219 31.9491
CA -12.557 0.0678236 46.5176
CA -1.87971 -31.8603 52.6552
CA -28.4118 -30.3208 48.2033
CA -31.3915 -28.2082 55.3793
CA -29.0461 0.819851 66.7275
CA -47.4559 -4.99719 59.3532
CA -30.7189 -26.9823 39.6374
CA -14.7391 0.365722 43.8886
CA -34.5556 -13.3474 40.0032
CA -14.4544 -20.8089 17.8235
CA -26.3714 -4.32118 43.014
CA -48.0524 -25.6006 70.0476
CA -24.4226 -37.4873 48.5128
CA -41.7617 -30.4182 44.6762
CA -22.0229 5.53541 43.0588
CA -20.5404 -25.6884 45.3335
CA -20.0351 -26.8884 74.1206
CA -23.2019 -33.5997 79.9537
CA -36.9138 -2.14425 62.1711
CA -16.0451 -40.3356 47.3316
CA -25.2635 -17.5087 62.1718
CA -33.031 -39.0615 79.7715
CA -12.1952 -31.7976 74.4174
CA -14.7472 -9.11436 13.1014
CA -18.7196 -15.5201 55.8975
CA -43.2688 -19.1883 47.9246
CA -10.9518 -4.36177 3.80129
CA -30.0537 -17.9914 65.4009
CA -24.9548 -24.0421 58.4622
CA -44.1756 -19.5221 50.8874
CA -51.0157 -19.8394 54.4766
CA -0.188044 -29.8046 57.3852
CA -5.06705 -29.5056 54.5695
CA -11.2672 -9.50418 8.47979
CA -40.8051 -13.3689 37.1207
CA -27.2096 -20.6884 51.1071
CA -32.2417 -1.33649 63.3019
CA -37.7205 -27.808 55.0802
CA -36.1814 -21.8915 72.8886
CA -26.8947 -3.37629 63.2179
CA -34.2739 -9.91237 72.4887
CA -30.0524 -2.96819 46.7827
CA -41.7647 -8.23571 75.2854
CA -29.9816 -3.92311 35.3488
CA -3.73997 -30.3781 50.4901
CA -5.90724 -0.369226 49.6551
CA -41.7583 -6.79661 65.4147
CA -22.563 -15.9242 56.6898
CA -27.6507 -5.906 42.2856
CA -25.6784 -32.3653 52.2376
CA -27.6411 -34.1213 74.9917
CA -13.0507 -7.85404 56.6243
CA -25.2041 -10.9568 34.5101
CA -15.8986 -21.6117 47.3194
CA -44.563 -26.6213 58.6882
CA -32.672 4.19291 66.5599
CA -30.7806 -9.37178 73.2178
CA -14.7178 -37.9886 48.9843
CA -15.4914 -8.43553 53.4972
CA -17.2035 -6.36534 51.3358
CA -18.6934 -16.3761 44.8188
CA -51.9186 -31.6672 58.7822
CA -50.4511 -26.9513 62.0975
CA -9.26582 -30.6961 47.0142
CA -43.1079 -8.58119 77.1922
CA -36.7076 -37.2983 56.3382
CA -32.7116 -36.8337 63.84
CA -40.4242 -38.2374 40.3937
CA -17.6465 -23.7534 66.8272
CA -46.4539 -12.8057 57.6682
CA -35.7088 -14.5113 50.9862
CA -13.159 3.22012 42.6728
CA -36.7592 -41.7995 80.8531
CA -10.6684 -10.3261 53.1108
CA -16.9543 -14.8231 57.1869
CA -14.433 -11.1025 38.6713
CA -19.7118 -14.7005 83.1055
CA -28.1188 -0.719792 66.9072
CA -8.2635 -29.5516 53.4861
CA -48.0207 -26.596 74.7818
CA 2.6068 -23.0005 54.0787
CA -20.6555 -5.00399 51.0878
CA -12.7798 -4.71769 37.19
CA -14.6284 -38.5088 46.3299
CA -16.2332 -29.3519 31.6782
CA -25.5465 -39.8229 66.4821
CA -49.6346 -29.9794 60.8591
CA -16.3639 -22.3825 61.0012
CA -37.9766 -13.1463 70.1459
CA -23.9668 -4.82693 45.3094
CA -17.7779 -18.4045 56.0489
CA -8.31459 -15.3135 65.258
CA -36.4125 -17.5292 50.0318
CA -24.2351 -23.853 61.8576
CA -35.123 -28.7714 49.1722
CA -40.1117 -13.3313 50.3971
CA -28.6192 -9.65248 55.1589
CA -40.7021 -5.06012 56.6412
CA -26.1118 -19.8282 38.3423
CA -38.9307 -30.7667 66.8615
CA -32.8933 -16.1484 41.639
CA -40.2128 -2.97246 58.4331
CA -44.0954 -27.2062 67.9828
CA -18.3013 -14.2185 72.7227
CA -29.2649 -23.773 54.7239
CA -20.0188 -15.2067 57.8738
CA -24.8478 -0.597479 48.5033
CA -32.7056 -23.6486 73.1124
CA -27.7608 -28.7679 57.4092
CA -40.5102 -32.0123 58.1252
CA -36.0808 -30.7548 47.5332
CA -20.3922 -37.3117 74.475
CA -17.7609 -21.1366 78.3205
CA -43.487 -26.5895 74.7648
CA -16.0734 -25.152 68.1945
CA -13.8779 -20.0963 46.591
CA -37.8557 -14.7142 75.1094
CA -12.6888 -9.71264 18.6249
CA -33.4491 -33.1028 77.2893
CA -29.6897 -35.8421 67.3476
CA -28.6427 -29.0522 33.0841
CA -14.8737 -20.7458 36.4366
CA -37.4779 -32.3 58.9208
CA -36.052 -35.6331 46.3968
CA -11.376 -18.8735 58.2577
CA -1.9531 -29.4676 58.0155
CA -25.182 -18.5967 72.326
CA -38.6291 5.77289 67.0119
CA -7.08087 -20.2448 61.203
CA -28.8225 -34.1992 58.2759
CA -7.78467 -25.3955 55.8568
CA -15.2936 -30.0279 73.0391
CA -28.8679 -11.219 53.263
CA -31.925 -29.021 75.3824
CA -45.3841 -13.4145 50.4542
CA -20.2884 -26.5976 38.556
CA -36.3964 -37.5491 49.7235
CA -13.8448 -38.4782 76.9604
CA -10.5832 -18.2198 61.1817
CA -36.5089 -39.1105 66.1485
CA -32.2901 -11.4592 55.7118
CA -34.5676 -16.0233 72.9496
CA -20.6831 -4.18401 45.8888
CA -10.7777 -13.3588 86.1611
CA -23.9749 -34.9412 40.5159
CA -35.5522 -1.74842 66.4698
CA -10.437 2.18535 53.5651
CA -41.6514 -24.2733 59.8468
CA -31.1867 -15.1816 58.3623
CA -14.2293 -38.9413 79.7709
CA -26.2891 -5.02247 47.7645
CA -18.8288 -25.1254 60.6125
CA -42.4422 -23.9453 49.7207
CA -17.9728 -24.4452 38.7291
CA -17.9414 -22.8601 79.7945
CA -18.7204 -2.23399 52.9172
CA -32.1824 1.78217 64.1416
CA -36.0238 2.98025 55.6747
CA -43.3541 -13.2507 57.3021
CA -29.3739 -1.72676 32.8167
CA -33.96 -41.5942 52.1135
CA -5.76006 -23.1196 67.709
CA -13.2425 -15.0953 26.3474
CA -40.1884 -40.4559 52.0264
CA -41.4754 -37.6383 50.1125
CA -36.4426 -22.5301 62.0655
CA -10.405 -31.7563 73.9266
CA -16.806 -24.5094 72.2862
CA -33.0645 -38.0996 51.3791
CA -20.6239 -18.4631 78.6261
CA -20.5203 -28.2271 33.4269
CA -32.5068 -25.1141 79.1162
CA -24.8771 4.97298 44.4935
CA -43.1646 -42.0018 53.5146
CA -18.4032 -33.6564 42.6908
CA -17.5794 -24.1302 63.7416
CA -21.568 -3.56431 58.7938
CA -10.1215 -26.7336 57.161
CA -15.5518 -16.0688 45.3994
CA -29.4728 -13.3356 44.8365
CA -7.41878 -10.6705 17.8429
CA -50.8072 -27.5162 60.426
CA -16.8078 -22.3834 64.7926
CA -33.6725 -44.6152 38.6621
CA -36.1261 -27.583 35.279
CA -17.4118 -30.5512 71.746
CA -27.921 -37.08 39.4222
CA -26.5721 -28.7298 60.7982
CA -14.6928 -7.93847 61.0668
CA -45.7304 -27.9641 75.9515
CA -46.3097 -22.1316 57.4469
CA -21.5958 -21.7479 45.9556
CA -9.26954 -19.2306 66.1135
CA -49.1808 -12.9137 53.9278
CA -38.816 -36.2599 60.127
CA -50.2554 -28.5407 71.6019
CA -27.7446 -25.9936 54.8753
CA -7.85399 -25.6701 34.0944
CA -13.7616 -9.56691 61.2339
CA -27.478 -35.0237 66.5035
CA -43.0545 -23.4534 55.0175
CA -16.5652 -11.1804 64.1414
CA -24.0904 -19.2141 50.061
CA -44.7133 -9.90289 73.8917
CA -21.1277 -36.0695 72.6561
CA -32.3116 -40.1026 44.1326
CA -25.1556 -15.6376 60.3922
CA -14.7615 -31.3395 83.1861
CA -34.7254 -18.1093 61.7924
CA -34.5376 -2.83867 56.0841
CA -17.8803 -13.3485 59.8049
CA -50.5946 -5.67377 59.395
CA -7.9416 -5.6042 3.21642
CA -48.5479 -27.6155 71.6697
CA -30.358 -27.5014 32.1163
CA -39.8763 -27.5316 55.2504
CA -30.3776 -36.3164 78.6102
CA -18.6881 -34.9056 47.0155
CA -27.0355 -34.5094 57.4227
CA -3.6915 -15.9203 17.2707
CA -19.6497 -32.6309 41.6419
CA -24.3777 -5.16042 62.2482
CA -44.4888 -10.2915 78.0025
CA -5.35025 -30.0097 47.8563
CA -31.8683 -15.7492 47.7217
CA -32.5964 -35.391 83.5566
CA -25.6644 -5.32905 33.3324
CA -39.7979 -24.3291 71.284
CA -26.7508 -38.3685 40.1446
CA -25.6942 -12.0439 33.0858
CA -35.8062 -33.0554 45.7035
CA -22.8779 -35.6082 74.2354
CA -11.834 -26.255 39.1066
CA -7.30989 -23.8143 30.679
CA -23.2581 -35.2635 64.3671
CA -8.34602 -21.7062 40.0661
CA -0.948516 -26.2538 52.6456
CA -17.7881 -26.0607 29.8901
CA -40.867 -12.5125 53.7516
CA -28.5828 -25.9874 33.6983
CA -20.3215 -17.5801 88.1471
CA -28.6977 -27.3677 30.2342
CA -17.1215 -14.5303 41.7853
CA -41.0742 -10.1231 72.5124
CA -27.9054 -19.7165 67.3216
CA -35.964 -29.6473 72.9608
CA -12.9568 -13.8878 15.1859
CA -19.2172 -5.12618 53.324
CA -38.3273 -33.1433 78.5328
CA -11.7203 -0.719889 39.9391
CA -17.0845 -13.1496 73.6008
CA -30.1653 -28.0939 37.5545
CA -12.3255 -17.4227 57.7307
CA -27.355 -31.7066 63.5897
CA -44.0913 -24.6908 59.5915
CA -13.0695 -16.2936 52.5896
CA -31.8995 -12.7469 66.854
CA -9.71048 -9.8471 7.11007
CA -22.8257 -16.0087 29.2622
CA -27.3925 -30.6108 31.7186
CA -36.51 -7.47752 65.087
CA -20.483 -14.8025 31.0376
CA -45.129 -14.0124 59.5287
CA -1.42128 -23.9768 64.7711
CA -18.5134 -16.652 82.7198
CA -29.1456 -13.1409 75.1855
CA -49.2147 -25.7669 58.5825
CA -13.7874 -16.3557 19.8074
CA 1.52339 -23.8293 48.0597
CA -29.5092 -25.9502 48.294
CA -8.80959 -11.4728 19.0834
CA -37.6365 -15.8322 48.8701
CA -31.371 -13.5476 68.4536
CA -24.2054 -16.9042 69.2631
CA -13.4327 -15.0598 82.9393
CA -8.79178 -5.95639 38.5702
CA -33.0991 -40.0657 55.9771
CA -30.6153 -10.4182 54.031
CA -31.8645 -1.28381 66.21
CA -35.6758 0.302203 52.8958
CA -25.9106 -25.5175 45.1555
CA -23.5628 -19.3925 66.2271
CA 2.07316 -31.4757 52.1605
CA -7.52625 0.453042 63.0881
CA -15.1382 -36.0242 73.9382
CA -22.9685 -24.8462 54.7362
CA -3.3679 -32.3792 54.8355
CA -22.019 -5.9122 37.2829
CA -21.7735 -8.85741 32.0134
CA -31.686 -45.4811 67.3514
CA -30.4441 -1.52543 60
CA -8.38974 -20.7204 63.5516
CA -23.6179 -25.7999 30.7974
CA -22.1749 -24.6 46.0178
CA -23.592 -15.5991 64.255
CA -17.3754 -41.5747 49.988
CA -28.9378 -10.8949 57.237
CA -6.38057 -9.62432 21.3736
CA -47.9314 -29.1936 72.3925
CA -34.8421 -41.0425 88.1403
CA -9.89339 -14.466 18.0092
CA -20.7759 -22.837 75.5132
CA -24.209 -7.56293 65.1052
CA -24.0253 -21.5417 77.1674
CA -21.1753 -40.0085 64.0066
CA -13.6665 -15.9658 41.8731
CA -15.1632 -34.4947 70.8886
CA -37.2167 -33.2294 72.584
CA -19.7199 -23.4682 77.599
CA -33.9654 -8.40812 47.3779
CA -34.1655 -11.8345 77.6667
CA -4.93692 -10.2293 6.87241
CA -22.5339 -18.3236 52.6857
CA -36.9355 -35.6271 43.8194
CA -30.4983 -27.3182 73.8531
CA -14.6542 -6.37095 64.37
CA -24.2269 -34.4917 62.6357
CA -36.5064 -30.9325 54.2147
CA -24.985 -35.2409 74.2233
CA -33.3193 -20.2878 41.2385
CA -44.0969 -2.25647 57.0147
CA -12.4392 -23.4536 55.9971
CA -26.6306 -30.5362 46.4853
CA 1.65537 -21.1654 53.5091
CA -17.9426 -20.2769 53.8156
CA -8.9846 -26.5863 32.6904
CA -4.68985 -6.72613 6.30527
CA -6.94914 -7.71545 11.3497
CA -13.3771 -11.0168 63.2711
CA -10.3229 -25.2683 39.8108
CA -22.206 -9.95099 65.1819
CA -14.1291 -29.1166 46.9549
CA -32.8124 -11.148 72.8227
CA -13.984 -10.3887 58.2618
CA -10.0614 -15.0567 27.5737
CA -10.4064 -16.5982 62.339
CA -19.1627 -24.7934 31.9817
CA -18.1136 1.25408 42.6844
CA -16.2033 -35.1543 80.425
CA -36.1194 -26.0729 58.0199
CA -15.1122 -16.8792 38.9231
CA -38.0384 4.28937 68.0257
CA -40.5652 -33.0329 72.6121
CA -13.0605 1.38969 40.1284
CA -42.4212 -39.158 63.497
CA -11.3139 2.43197 56.8725
CA -36.6716 -12.9052 36.3653
CA -39.5659 -31.2726 46.5757
CA -31.2201 -10.2155 70.9696
CA -17.6454 -25.0876 45.8598
CA -26.7884 -17.5121 33.2504
CA -44.2243 -31.4915 72.2838
CA -33.4503 -45.4112 65.4345
CA -35.1272 -40.1496 74.1247
CA -38.133 -38.4373 61.9442
CA -30.7877 -33.0113 79.4339
CA -28.8113 -23.2405 74.6296
CA -42.2145 -9.40463 56.441
CA -18.9038 -4.07401 51.7408
CA -13.8282 -33.7098 47.0385
CA -4.87404 0.583729 47.8739
CA -8.84274 -2.76286 52.1097
CA 2.49789 -25.6089 64.5221
CA -13.8588 -13.3562 11.0813
CA -47.5286 -16.9772 55.3105
CA -45.6733 -2.99431 58.2185
CA -20.3036 -6.50376 61.1935
CA -5.37788 0.917983 58.6217
CA -21.4446 -1.94746 59.5863
CA -22.145 -34.6652 77.241
CA -6.54413 -14.1221 14.0919
CA -16.5141 -6.88378 61.8629
CA -13.241 -35.592 73.328
CA -22.5651 -33.3338 49.0866
CA -22.98 -6.56359 61.25
CA -20.7583 -15.3181 66.3407
CA -9.5621 -25.8183 36.1492
CA -5.11104 0.0544128 54.3252
CA -32.2583 -37.1502 59.7775
CA -12.5123 -2.56634 44.7032
CA -18.4286 -7.06648 67.493
CA -20.6979 -22.6743 29.7165
CA -43.956 -26.3995 52.823
CA -36.4819 -39.2532 60.2628
CA -16.9889 -32.1879 77.7469
CA -28.5048 -31.539 51.6171
CA -28.0889 -33.1067 61.9853
CA -23.5823 -25.676 77.1848
CA -29.4959 -16.7141 40.1808
CA -42.1508 -35.8808 50.257
CA -26.3468 -26.368 57.7078
CA -32.5487 -4.11941 63.7889
CA -14.5761 -42.5987 48.8977
CA -27.0739 -21.9138 74.8116
CA -15.2388 3.81821 59.622
CA -31.23 -33.8711 59.0739
CA -22.6497 -17.4935 34.2088
CA -10.9483 -6.95155 8.57838
CA -3.19321 -26.1891 54.0578
CA -33.9762 5.88062 62.7248
CA -22.5082 -29.5844 45.173
CA -11.2509 -30.5898 50.2284
CA -47.2942 -24.1917 62.0131
CA -19.4617 -12.404 54.8237
CA -12.0601 -24.2154 41.6858
CA -32.1825 -18.6766 67.0338
CA -34.1066 -39.516 85.7085
CA -24.6077 -22.2187 26.2613
CA -19.9914 -7.24324 34.8434
CA -35.7227 -41.1379 41.6459
CA -10.5535 -31.7508 76.6146
CA -19.7893 -13.3292 53.3011
CA -19.0247 -19.0525 69.9279
CA -10.1467 -3.40943 56.2557
CA -16.2623 -21.919 38.5281
CA -8.72533 -27.9689 71.766
CA -43.3218 -21.3161 51.4302
CA -39.1738 -31.4705 50.1626
CA -15.9636 -33.8353 47.0301
CA -9.39116 -16.7763 27.9192
CA -11.5936 -9.37942 15.3528
CA -11.5344 -32.3754 46.4916
CA -34.819 -15.418 44.0504
CA -18.6043 -6.07349 49.4428
CA -24.4036 -30.2393 31.1455
CA -49.4059 -28.4437 54.6085
CA -10.8866 -3.40303 49.1868
CA -4.70375 -26.4178 55.5345
CA -16.2513 -11.1329 42.9467
CA -44.993 -1.21521 55.8325
CA -4.72539 -21.7109 60.0811
CA -41.0267 -28.5724 50.3111
CA -25.24 -9.94426 65.0475
CA -23.6559 -7.14334 69.1774
CA -12.6346 -23.3788 48.0002
CA -36.0941 -10.8832 50.5226
CA -21.5631 -16.746 31.6066
CA -26.4802 -20.6435 57.8083
CA -32.6834 -34.3832 65.5756
CA -34.489 -13.9023 73.474
CA -27.6033 -17.4182 40.4768
CA -8.66883 -23.5589 54.2127
CA -40.2464 -9.52867 75.9867
CA -31.0262 -7.27805 56.3634
CA -32.0149 -6.32015 41.0401
CA -26.7152 -19.3669 47.8945
CA -42.0387 -7.5091 55.7499
CA -10.7251 -0.314649 46.7046
CA -27.2803 -13.5095 35.9391
CA -8.83024 -33.5861 50.1193
CA -12.2531 -15.6969 22.2071
CA -19.3286 -21.829 69.2994
CA -24.6774 -39.3037 48.868
CA -20.5159 -2.98597 52
CA -37.7332 -25.1142 34.9248
CA -33.097 -33.7089 82.4871
CA -23.9828 -27.9394 70.466
CA -44.8771 -25.6862 72.7958
CA -32.6291 -35.3044 73.9823
CA -18.3091 -2.10812 61.2243
CA -11.403 -24.123 45.773
CA -22.1879 -25.9711 66.6087
CA -26.3316 -12.6133 39.8469
CA -8.01935 -24.9368 63.1763
CA -53.7685 -31.8926 62.6214
CA -9.97051 -8.04286 7.23412
CA -45.9181 -21.7339 55.3511
CA -19.9922 -13.1473 29.9898
CA -27.6092 -6.03558 48.8777
CA -8.95043 -0.620154 47.028
CA -37.9364 -28.8468 70.7018
CA -25.3182 -16.4405 35.3943
CA -30.6891 -33.6762 54.6
CA -13.7404 -12.4862 29.3658
CA -37.4614 -20.9157 37.8244
CA -37.6129 -33.1559 75.0585
CA -28.8673 -24.167 78.4729
CA -30.0117 -8.78061 66.5536
