489

CA -6.88036 -31.9196 50.1902
CA -6.94667 -7.28797 9.52752
CA -35.4781 -20.9475 61.2793
CA 2.52881 -26.6692 53.833
CA -7.66165 -27.3474 52.7154
CA -34.8405 -4.1255 51.1774
CA -31.2728 -32.9841 49.4254
CA -43.0458 -15.7427 53.9785
CA -8.70041 -17.5449 5.53968
CA -7.9625 -15.3986 8.61143
CA -27.8542 -32.5279 39.9516
CA -12.557 0.0678236 46.5176
CA -29.8685 -29.5672 51.7312
CA -33.644 -31.6472 71.6368
CA -20.6482 -13.4249 47.8434
CA -24.3512 -24.3693 45.125
CA -23.4002 -27.282 34.5772
CA -35.1121 -9.97394 36.9687
CA -14.7391 0.365722 43.8886
CA -34.5556 -13.3474 40.0032
CA -37.2707 -31.4385 68.2084
CA -24.8955 -16.5264 52.9173
CA -43.1724 -25.5992 52.0675
CA -21.8815 -19.4007 45.5001
CA -34.0166 -35.9288 63.6653
CA -42.0601 -10.1275 53.6762
CA -25.8509 -37.0019 76.636
CA -31.0424 -28.2264 49.5407
CA -10.1064 -3.36936 6.67478
CA -35.8526 -21.8524 35.1964
CA -18.1267 -7.85609 48.961
CA -21.9507 -25.3183 72.4615
CA -13.6441 -25.0069 40.9594
CA -18.4284 -31.6649 38.5264
CA -27.8118 -15.5374 50.2938
CA -6.64452 -29.8084 55.1127
CA -38.4519 -35.8698 72.0404
CA -15.7378 -22.6947 55.277
CA -30.0537 -17.9914 65.4009
CA -36.4584 -34.5522 69.0873
CA -32.1322 -17.1054 35.2392
CA -29.0056 -6.44178 56.9792
CA -47.11 -29.1725 73.7989
CA -39.3955 -13.8474 57.9134
CA -22.9158 -19.078 32.7424
CA -41.6687 -30.2395 46.5526
CA -5.08675 -28.7998 44.0502
CA -20.888 -36.5979 48.0438
CA -35.2307 -30.9264 51.3153
CA -6.82186 -11.1265 11.1052
CA -8.71292 -14.7099 65.0633
CA -34.2739 -9.91237 72.4887
CA -46.9316 -24.4738 66.9117
CA -41.7647 -8.23571 75.2854
CA -40.6084 -4.34633 65.1317
CA -32.6924 -35.3258 58.113
CA -40.5558 -35.2204 50.0189
CA -44.3448 -12.8514 49.6246
CA -43.2828 -28.8942 55.6786
CA -31.8173 -0.753769 56.6932
CA -33.6789 -4.98262 71.6362
CA -15.713 -37.1637 52.023
CA -45.9433 -7.37699 74.591
CA -19.3422 -11.5919 62.1693
CA -58.7461 -22.4951 62.6236
CA -7.42288 3.15897 56.6909
CA -33.4254 -16.0902 81.6322
CA -24.3409 -4.46236 37.2567
CA -10.6812 -1.27073 59.0161
CA -35.7994 -37.4012 50.643
CA -26.4259 -29.9243 57.9345
CA -27.7144 2.9216 44.7604
CA -18.3616 -16.0445 62.0215
CA -35.9624 -35.9353 62.8267
CA -5.10269 -32.0317 49.1172
CA -37.5218 -14.5636 54.4505
CA -27.2361 -16.117 61.2942
CA -37.3773 -6.16393 49.8035
CA -41.6778 -16.0106 60.4914
CA -8.99398 -16.2417 17.3137
CA -30.5205 -16.5058 75.5042
CA -25.6245 -2.31967 45.1131
CA -20.5553 -9.68891 64.5995
CA -12.2179 -13.8064 30.1165
CA -50.2905 -34.0248 74.0618
CA -23.7795 -10.2319 33.6184
CA -33.7874 -4.21356 57.8262
CA -27.4658 5.2123 43.203
CA -19.3704 -36.7978 76.483
CA -38.4746 -27.4889 48.0617
CA -45.7362 -11.0555 52.1126
CA -32.7074 -31.485 55.396
CA -38.4708 -31.1548 77.2845
CA -35.6666 -15.0829 39.411
CA -17.9923 -12.7211 32.9383
CA -22.4381 -14.7729 63.4727
CA -48.0722 -37.8592 76.4178
CA -14.5606 -3.55887 57.648
CA -32.8522 -39.733 77.8404
CA -23.7609 -1.47206 58.8003
CA -27.6694 -18.8438 58.5895
CA -21.1697 -24.4413 54.8518
CA -18.594 -28.276 64.664
CA -15.6449 -7.44358 65.7905
CA -26.4771 -40.1736 47.6927
CA -20.3989 -41.6334 77.4753
CA -22.8148 -20.6288 55.1452
CA -24.6232 -37.3076 51.2468
CA -7.33963 -1.90268 56.0002
CA -19.4545 -9.45744 46.9884
CA -6.35217 -29.1184 50.7541
CA -8.11337 -32.7844 49.1512
CA -11.725 4.49157 58.9022
CA -33.533 -14.998 54.9573
CA -29.1884 4.5343 45.5339
CA -17.0122 -0.516072 67.0585
CA -19.6882 -39.9257 42.8342
CA -46.0182 -22.7372 66.0499
CA -16.1087 -19.5432 77.7144
CA -27.7608 -28.7679 57.4092
CA -51.7518 -16.4529 53.2137
CA -43.1048 -10.0092 48.8049
CA -32.5045 -4.83558 48.7114
CA -49.9047 -7.48556 45.5909
CA -28.2905 -1.60182 33.4608
CA -19.8449 0.73651 62.9222
CA -23.3602 -31.8998 42.46
CA -23.0853 -35.3617 78.0023
CA -7.10924 -12.776 17.6815
CA -14.4248 -3.16363 52.8736
CA -48.3359 -9.13155 43.3562
CA -9.99027 -13.0122 48.6611
CA -47.7506 -24.5082 62.9488
CA -16.0273 -0.250129 53.3266
CA -19.0687 -28.283 60.0976
CA -37.238 -26.4936 55.2656
CA -16.6405 -19.7425 71.2447
CA -31.7752 -16.8154 39.2721
CA -7.2018 -33.0013 45.3105
CA -11.4155 -14.2806 61.1933
CA -10.7047 -10.1383 56.1457
CA -29.8434 -3.67306 69.5285
CA -19.8034 -22.6507 64.05
CA -3.48325 -30.5157 48.6698
CA -33.1122 -25.6309 41.1588
CA -17.3981 -25.1015 67.0362
CA -25.268 -30.262 59.9496
CA -32.82 -14.8718 52.3421
CA -42.9859 -10.0104 68.6952
CA -48.9555 -31.3256 52.5859
CA -40.0062 -34.7091 44.5129
CA -34.8486 -1.20736 70.056
CA -43.6315 -38.6216 48.2767
CA -5.24427 -33.5158 44.4902
CA -25.5402 -28.3708 79.2127
CA -28.1896 -32.3485 42.9928
CA -2.92736 -9.35893 8.49076
CA -18.5571 -23.6487 42.7462
CA -26.3555 -37.949 55.0689
CA -16.1197 -9.1527 44.3574
CA -10.1862 -12.8355 26.8922
CA -21.1303 -9.16424 51.5134
CA -29.3915 -33.2025 40.947
CA -50.9579 -13.5642 46.0093
CA -46.0455 -9.18756 53.2544
CA -20.1513 -31.9537 44.5913
CA -50.4793 -22.7501 63.4044
CA -52.8573 -27.125 56.2211
CA -33.6845 -24.9567 36.1295
CA -46.2634 -26.7904 79.1552
CA -32.3044 -34.4879 40.3812
CA -41.289 -19.3228 72.9955
CA -42.9648 -6.78636 68.5723
CA -43.1982 -24.0618 55.3882
CA -16.1586 -19.8119 39.278
CA -48.4061 -36.9377 72.3167
CA -17.7849 -11.323 65.3157
CA -36.8975 -6.2358 55.3058
CA -32.2734 -14.498 35.4461
CA -0.910715 -27.8106 46.7528
CA -20.6239 -18.4631 78.6261
CA -34.2972 -16.1982 78.0626
CA -53.9736 -23.0111 64.7083
CA -16.1266 -0.582023 56.6995
CA -32.355 -23.7781 40.3197
CA -28.8856 -21.99 61.5259
CA -17.5794 -24.1302 63.7416
CA -53.353 -18.4379 49.9814
CA -5.88726 -22.0007 54.0542
CA -61.5653 -21.4522 60.9231
CA -26.4743 -39.1233 77.2607
CA -7.41878 -10.6705 17.8429
CA -29.4508 -5.81973 45.3051
CA -36.8245 -4.15536 60.9837
CA -22.0097 0.0375899 64.96
CA -52.1818 -20.6422 54.8466
CA -11.0552 -16.0224 45.3165
CA -33.5298 -35.2074 59.8209
CA -37.221 -34.799 40.5955
CA -36.434 -31.3692 74.1488
CA -25.177 -16.848 81.2567
CA -18.3464 -22.1869 62.4082
CA -43.4774 -4.61692 69.4296
CA -47.1234 -13.1229 48.3817
CA -35.5208 -13.2669 37.6228
CA -39.7759 -30.1057 69.4169
CA -41.2456 -30.8204 58.6827
CA -12.7472 -12.2267 42.7535
CA -16.2413 -28.8147 42.2094
CA -32.0168 -26.1962 35.1225
CA -32.4072 -15.4867 56.5956
CA -17.9238 -0.712668 52.6116
CA -42.1687 -33.406 41.2387
CA -26.9276 -39.7202 45.3964
CA 2.82457 -21.0707 54.0207
CA -13.0247 -13.3189 12.3923
CA -18.7776 -16.9245 73.3815
CA -41.2161 -17.7088 33.0247
CA -27.3932 -12.3613 46.3323
CA -22.4329 -29.0284 79.0162
CA -32.22 -24.9111 32.5743
CA -10.4409 -24.8437 52.7187
CA -39.6625 -18.4175 70.9493
CA -14.7782 -13.7197 82.568
CA -28.9856 -19.0439 80.6021
CA -50.1947 -19.0623 55.0178
CA -16.4758 -16.106 37.7974
CA -14.2897 -10.4602 6.87433
CA -52.894 -14.0957 47.0398
CA -21.2036 -12.2816 60.4692
CA -3.6915 -15.9203 17.2707
CA -30.744 -36.684 80.1669
CA -49.9113 -34.5253 72.2846
CA -43.4785 -31.2749 50.0458
CA -20.1903 -36.7619 38.1328
CA -18.1526 1.81323 48.2722
CA -42.0321 -26.6243 50.7225
CA -25.6644 -5.32905 33.3324
CA -34.7838 -35.9661 48.5305
CA -33.2899 -35.9478 75.8683
CA -15.3859 -27.9049 43.5621
CA 2.64711 -25.5473 50.8554
CA -21.7571 -4.07387 37.5747
CA -23.6999 -35.4178 41.1083
CA -37.4732 -6.14258 58.8902
CA -28.1685 6.12157 46.9019
CA -8.34602 -21.7062 40.0661
CA -33.4472 -4.55944 63.7729
CA -27.3019 12.0581 37.849
CA -18.3259 -3.54204 58.365
CA -14.8977 -11.1915 20.8813
CA -24.6678 -39.6373 59.1259
CA -12.0692 -19.0725 35.0883
CA -10.0052 -25.0215 57.9737
CA -7.91074 -26.9507 39.4837
CA -4.98192 -26.1931 58.863
CA -46.6299 -36.4215 52.6173
CA -12.9568 -13.8878 15.1859
CA -38.7711 -3.11887 68.5017
CA -33.0253 -27.9317 47.292
CA -34.8443 -8.27812 66.4574
CA -30.2531 -36.8904 74.7257
CA -49.3042 -24.1574 69.594
CA -29.2977 -9.2133 58.8605
CA -17.3986 -3.82382 63.9958
CA -29.9152 -18.5199 60.8781
CA -48.8813 -11.645 48.7852
CA -31.5404 -38.3498 78.4061
CA -45.492 -22.792 61.7423
CA -23.9838 -43.2753 63.4265
CA -23.0619 -16.9424 55.7082
CA -36.51 -7.47752 65.087
CA -29.9253 7.81156 42.9218
CA -41.9122 -27.5869 49.0547
CA -41.0328 -25.2054 69.7442
CA -18.5134 -16.652 82.7198
CA -32.6518 -24.1357 49.7477
CA -54.1719 -18.4296 47.9149
CA -13.7874 -16.3557 19.8074
CA -43.9233 -8.28593 54.9916
CA -45.6581 -32.2659 79.8157
CA -8.80959 -11.4728 19.0834
CA -15.5587 -0.163397 41.4537
CA -19.3023 -37.7474 43.3003
CA -24.5091 -10.6928 38.8991
CA -38.6215 -9.21932 68.7618
CA -2.24374 -21.2203 53.7643
CA -28.7949 -30.5008 36.4522
CA -10.9283 -13.4795 21.4652
CA -51.847 -16.6697 46.5984
CA -12.786 -2.39072 51.5388
CA -30.1811 -35.5729 75.9917
CA -50.4677 -15.2484 45.5429
CA -18.837 -21.9011 55.1114
CA -22.1138 -32.7453 61.4056
CA -14.5712 -7.70152 42.3017
CA -29.8748 -21.3131 69.5617
CA -32.1457 -13.7802 53.7941
CA -15.7604 -9.21096 68.1866
CA -8.75188 -23.6658 51.27
CA -27.0553 -12.3043 54.4553
CA -49.7834 -17.8876 58.6708
CA -35.0551 -11.1178 60.487
CA -24.1977 -8.48404 39.4154
CA -32.8621 -14.1572 43.1673
CA -23.6727 -11.9171 63.1548
CA -37.496 -35.2302 42.3905
CA -28.9378 -10.8949 57.237
CA -21.1464 -15.3301 30.8491
CA -6.19149 -14.4723 64.898
CA -19.6455 -10.5356 35.9
CA -13.2862 -24.7261 55.3623
CA -42.7427 -26.2775 70.0183
CA -52.4983 -25.0574 60.6982
CA -44.7066 -20.7972 59.47
CA -18.3611 0.765891 68.0484
CA -23.5361 -22.5998 45.9353
CA -23.0478 -14.6486 37.165
CA -18.9726 -12.4927 68.0715
CA -28.222 -34.6518 51.2241
CA -21.6716 -28.2725 52.4333
CA -28.9965 -2.28451 53.493
CA -27.1388 -28.3188 70.6839
CA -11.6867 -33.4671 46.6126
CA -28.4181 -35.2967 41.6421
CA -22.3461 -32.7477 75.4883
CA -15.5337 -29.232 65.914
CA -18.8417 -34.522 35.6254
CA -23.7835 -30.2374 51.008
CA -51.127 -30.2617 59.1921
CA -50.7489 -21.6846 51.3234
CA -20.9025 -23.0523 72.6544
CA -46.1972 -31.7396 71.6546
CA -40.1202 -32.0294 69.5097
CA -23.902 -18.4498 73.5429
CA -8.23181 -10.6452 2.39135
CA -43.0937 -11.7386 44.8568
CA -20.4077 -41.45 61.2057
CA -6.83003 -9.60559 6.33574
CA -26.471 -25.8894 47.4353
CA -44.0866 -15.8413 59.8769
CA -13.97 -21.1237 47.3828
CA -45.6514 -9.22795 50.4423
CA -15.2712 -16.9855 46.9499
CA -21.482 -11.8427 51.6325
CA -29.9638 -30.3484 62.4472
CA -16.8763 -18.5873 34.8023
CA -29.8943 -18.3617 63.1862
CA -23.0306 -1.28584 45.0465
CA -35.8122 -7.86668 38.3102
CA -28.8896 -44.8341 65.8116
CA -22.685 -38.1446 72.808
CA -46.2688 -33.1718 68.37
CA -24.7982 -20.0024 48.1778
CA -21.1457 -8.83752 36.8237
CA -16.7737 3.33614 63.9854
CA -55.2752 -21.0751 66.9616
CA -15.8117 -13.5177 27.652
CA -24.1238 -39.7763 60.993
CA -9.69658 -4.70764 55.2996
CA -8.27026 3.12617 59.4823
CA -38.013 -13.9851 34.7613
CA -21.9069 -20.8472 44.1089
CA -18.1089 -6.93764 37.7949
CA -31.0434 6.97249 44.4042
CA -12.4311 -33.9007 48.951
CA -49.687 -30.9929 69.46
CA -25.4206 3.17227 43.0238
CA -24.9541 -14.277 56.3841
CA -29.0584 -23.1157 54.9091
CA -31.5146 -44.9852 69.7397
CA -14.2255 -12.9557 30.8826
CA -21.5513 -6.24286 47.787
CA -20.7464 -26.0567 63.3878
CA -42.5722 -8.29457 60.9609
CA -47.5286 -16.9772 55.3105
CA -17.4036 -35.7409 36.7016
CA -26.4824 -1.56367 54.3065
CA -30.2272 -26.4523 47.8579
CA -61.499 -17.1238 60.0937
CA -23.8697 1.0614 60.1746
CA -29.9513 -8.5619 62.1133
CA -44.4934 -8.10672 56.9592
CA -26.1912 -29.002 61.341
CA -53.2804 -10.369 45.6555
CA -15.8908 -15.0746 24.7139
CA -12.644 -12.8296 56.9446
CA -12.0527 -7.15678 40.5588
CA -12.6321 -18.5169 40.1992
CA -31.3097 -15.4145 82.3991
CA -29.9467 -38.4454 60.4191
CA -21.1155 -38.4349 47.0602
CA -43.0805 -31.3365 53.0418
CA -30.3268 -17.2813 80.9029
CA -37.9957 -22.9281 62.7304
CA -16.9889 -32.1879 77.7469
CA -19.1897 -16.103 76.4535
CA -12.0259 -9.94636 40.9221
CA -11.3877 1.35536 55.8959
CA -50.6368 -30.7349 65.6338
CA -24.7728 -12.2106 81.5142
CA -24.5555 -18.3088 79.1238
CA -38.2292 -34.8551 66.3064
CA -42.5555 -22.0717 66.6147
CA -15.0011 -25.4301 54.3403
CA -18.307 -3.25365 56.3195
CA -25.8414 -42.8922 58.1647
CA -31.8747 -4.03971 35.8398
CA -10.9483 -6.95155 8.57838
CA -31.6139 -4.64109 64.6691
CA -30.9134 -24.1797 50.9066
CA -13.0971 -7.52322 10.2424
CA -28.4439 8.42779 40.394
CA -33.8563 -26.9687 36.4018
CA -26.8333 -18.0368 60.2254
CA -7.55398 -27.9979 41.7033
CA -38.835 -22.6061 56.4801
CA -55.0152 -22.2849 62.4252
CA -31.0916 -24.6818 53.7032
CA -29.8383 -23.6025 39.6089
CA -14.1246 -20.9382 49.9163
CA -22.284 -35.7162 51.3831
CA -12.1887 -18.9686 37.6701
CA -10.0143 -24.1359 42.8679
CA -19.3343 -1.87483 46.4655
CA -26.4156 -16.2585 43.7822
CA -15.9805 -4.41304 40.1804
CA -34.0507 -23.9038 38.0207
CA -47.3824 -31.5424 76.4739
CA -20.5479 -25.4333 58.8724
CA -22.6807 -25.9312 58.4524
CA -11.5936 -9.37942 15.3528
CA -20.7499 -20.8942 71.019
CA -25.4598 -33.1338 61.5239
CA -32.874 -34.8788 42.1488
CA -24.4036 -30.2393 31.1455
CA -41.1343 -19.9761 70.9179
CA -20.9006 -14.1222 38.5398
CA -26.8494 -5.37941 57.5812
CA -4.32549 -28.0331 54.6296
CA -49.1266 -29.9742 62.7795
CA -11.9147 -15.8697 64.9442
CA -40.22 -38.5934 52.5346
CA -44.9564 -12.1417 65.9037
CA -13.772 -16.8583 29.4993
CA -30.6296 -28.3591 52.9793
CA -22.1618 -32.235 51.477
CA -17.2519 -40.5408 37.3188
CA -36.0019 -16.4515 59.9247
CA -38.7308 -5.4531 70.9439
CA -32.8578 -38.8914 54.004
CA -19.6125 -32.6024 39.5125
CA -20.2932 -23.5128 67.5921
CA -21.2399 -22.9776 44.1602
CA -32.2933 -13.7197 56.0975
CA -23.1005 -17.8359 80.2159
CA -50.3304 -20.6167 53.2346
CA -14.7235 -36.2957 73.5181
CA -23.378 -1.63068 34.7574
CA -11.6415 -11.1758 8.71204
CA -29.3714 -33.478 71.9581
CA -12.2531 -15.6969 22.2071
CA -26.4427 -22.0019 43.5919
CA -4.73462 -22.2276 42.0392
CA -42.6455 -23.665 53.1645
CA -21.8331 -22.3754 82.8432
CA -16.4179 -38.5938 57.0403
CA -30.6995 -15.0254 42.6753
CA -22.4679 -5.55357 64.1604
CA -12.7188 -7.61194 42.6805
CA -35.9684 -39.7971 42.7308
CA -11.403 -24.123 45.773
CA -18.8668 -18.9522 81.3456
CA -27.2721 -32.0117 31.4541
CA -20.1491 -37.8591 79.4425
CA -17.5405 -11.238 53.0467
CA -22.763 -28.7722 81.6016
CA -21.4759 -28.3737 40.2054
CA -39.7408 -29.1403 48.5778
CA -29.5482 -6.32407 62.1697
CA -14.5404 -34.9753 76.9964
CA -27.7388 -8.29573 40.5019
CA -15.6651 -25.7311 49.9374
CA -33.3915 -18.5563 63.072
CA -6.38825 -9.14502 4.49902
CA -36.8073 -10.4823 74.3901
CA -29.2118 -4.02378 38.4917
CA -24.4295 5.7408 58.2788
CA -50.3377 -13.3831 43.959
