489

CA -24.5383 -16.3618 32.9166
CA -6.94667 -7.28797 9.52752
CA -9.62625 -8.65111 61.1837
CA -41.0554 -14.0906 59.186
CA -7.66165 -27.3474 52.7154
CA -18.8815 -28.8411 54.7797
CA -45.5381 -27.4533 63.2523
CA -15.9175 -28.4819 58.6
CA -19.7988 -21.2491 90.6581
CA -17.961 -7.04464 61.2611
CA -20.9729 -15.136 44.6542
CA -21.6975 -15.6376 34.7366
CA -21.8208 -49.5626 62.631
CA -10.8374 -6.20128 61.7884
CA -25.2151 -1.80165 37.6029
CA -56.8334 -22.911 54.7651
CA -40.9436 -23.9911 54.4459
CA -35.1121 -9.97394 36.9687
CA -28.4072 -41.3492 83.3487
CA -37.9169 -12.827 38.0306
CA -37.2707 -31.4385 68.2084
CA -38.4341 -30.7844 55.1651
CA -43.1724 -25.5992 52.0675
CA -15.1478 -37.178 46.1751
CA -41.4313 -27.6736 63.5776
CA -13.7758 -6.86716 41.2466
CA -28.2034 -19.3032 75.6797
CA -26.9462 -24.3801 60.7044
CA -46.9263 -34.287 61.2829
CA -36.6312 -23.2289 28.1739
CA -37.9173 -32.0831 57.9362
CA -46.9515 -22.3188 73.3335
CA -13.6441 -25.0069 40.9594
CA -33.0602 0.712845 50.5226
CA -24.7828 3.65402 43.2163
CA -19.1714 -5.43268 48.2899
CA -20.9296 -7.56493 37.832
CA -15.7378 -22.6947 55.277
CA -46.0494 -27.5146 50.2579
CA -22.862 -4.25701 62.2279
CA -41.4579 -30.4762 64.6289
CA -24.3347 -37.7486 52.186
CA -47.11 -29.1725 73.7989
CA -12.5929 -22.7536 49.4867
CA -22.9158 -19.078 32.7424
CA -34.6554 -21.8732 31.1214
CA -10.9903 -35.1038 50.8672
CA -28.5582 -29.0889 46.2056
CA -35.2307 -30.9264 51.3153
CA -7.30865 -39.7009 44.9497
CA -32.418 -19.3375 40.7216
CA -17.562 -37.2931 47.0261
CA -46.9316 -24.4738 66.9117
CA -34.6742 -37.4974 44.4013
CA -48.1881 -25.5431 74.9241
CA -45.9261 -20.8486 74.2433
CA -40.5558 -35.2204 50.0189
CA -44.2832 -21.2603 47.6804
CA -43.2828 -28.8942 55.6786
CA -26.1273 -5.2699 37.2681
CA -32.0305 -25.6702 56.2649
CA -23.5682 -33.5566 77.3971
CA -22 -11.6913 65.5134
CA -19.3422 -11.5919 62.1693
CA -31.753 -21.2353 52.801
CA -38.5596 -19.9551 28.7865
CA -9.28619 -14.1037 5.29
CA -41.4313 -8.22296 53.8412
CA -44.7649 -39.4215 54.3205
CA -35.7994 -37.4012 50.643
CA -26.4259 -29.9243 57.9345
CA -38.289 -24.9699 68.5039
CA -37.89 -15.7294 48.6399
CA -20.6057 -18.2933 50.7832
CA -6.71484 -31.9203 46.6787
CA -37.7976 -9.36393 40.8945
CA -40.0541 -9.4115 41.8017
CA -37.3773 -6.16393 49.8035
CA -35.8558 -29.7107 41.1475
CA -8.99398 -16.2417 17.3137
CA -23.4126 4.11333 40.0072
CA -53.489 -19.8222 53.2924
CA -20.5553 -9.68891 64.5995
CA -5.29913 -7.12325 59.1606
CA -52.6368 -21.7663 51.0372
CA -36.6106 -27.2576 74.2708
CA -18.1735 -27.7909 46.3582
CA -16.9061 -15.4943 47.7055
CA -27.2659 -26.3941 70.0578
CA -32.7403 -9.56535 77.5742
CA -44.2256 -26.0172 64.8312
CA -15.1478 -5.48428 69.5383
CA -9.20542 -37.3101 48.468
CA -42.3116 -23.2221 56.4564
CA -17.9923 -12.7211 32.9383
CA -16.0197 -3.69115 61.6738
CA -34.4105 -19.5655 38.1927
CA -52.7635 -20.1226 65.8657
CA -7.8642 -22.6242 49.28
CA -29.2384 -36.917 57.969
CA -22.5873 -35.6383 43.2245
CA -32.9384 -35.5106 74.0046
CA -26.1669 -36.2805 52.1166
CA -46.0317 -17.2557 47.1412
CA -43.1471 -27.78 72.4392
CA -37.6227 -7.07966 62.432
CA -22.8148 -20.6288 55.1452
CA -17.8558 -7.40263 72.4119
CA -30.3388 -18.1841 51.395
CA -19.4545 -9.45744 46.9884
CA -26.6186 -29.841 66.0086
CA -21.4616 -12.3953 74.782
CA -9.29563 -10.088 15.6689
CA -14.6376 -12.0957 49.1986
CA -49.3738 -21.8499 46.8566
CA -37.8022 -5.31942 63.055
CA -29.0116 -18.4788 48.3367
CA -4.8896 -9.60839 10.3751
CA -36.4232 -12.9444 45.8017
CA -27.7608 -28.7679 57.4092
CA -6.39644 -4.76324 61.1469
CA -18.5583 -39.2286 76.3431
CA -37.2793 -21.3682 30.9872
CA -12.9105 -5.62419 69.9731
CA -28.2905 -1.60182 33.4608
CA -30.0416 -14.7403 74.7053
CA -26.8872 -13.5986 81.1554
CA -23.4042 -18.5959 51.4875
CA -25.5001 -33.3686 41.2515
CA -14.4248 -3.16363 52.8736
CA -35.0506 -24.7119 50.4202
CA -13.8031 -40.0188 78.1073
CA -28.5173 -11.8658 67.4774
CA -49.6221 -13.8307 47.4291
CA -19.0687 -28.283 60.0976
CA -15.025 -2.00062 62.0304
CA -45.3927 -21.2474 59.0382
CA -38.1795 -10.2918 42.4848
CA -7.2018 -33.0013 45.3105
CA -16.6835 -7.49278 70.0438
CA -45.6153 -35.9675 49.4923
CA -37.6027 -10.7541 37.559
CA -14.0147 -12.9091 61.3026
CA -18.4942 -21.6825 92.9976
CA -33.1122 -25.6309 41.1588
CA -37.7974 -30.0521 36.626
CA -11.481 -4.65444 61.0619
CA -32.82 -14.8718 52.3421
CA -37.1775 -37.0061 74.7427
CA -49.5286 -33.7319 49.0406
CA -16.4225 -12.3566 65.2379
CA -45.1665 -29.3321 80.3003
CA -8.66902 -30.3647 55.1101
CA -14.0394 -18.2934 23.1147
CA -54.2886 -10.6696 53.99
CA -12.899 -27.3128 61.3268
CA -21.7127 -18.9447 85.7418
CA -17.1995 -16.8443 75.8019
CA -43.1593 -8.44788 73.8827
CA -16.1197 -9.1527 44.3574
CA -42.9628 -4.50102 59.5055
CA -35.6545 -33.3177 62.8884
CA -16.1258 -28.7931 48.679
CA -20.9984 1.00901 41.952
CA -30.39 -30.2177 43.7765
CA -22.4843 -37.4098 79.6801
CA -22.6705 -28.3273 59.7162
CA -51.3565 -24.03 57.3505
CA -34.2547 -12.6032 41.0476
CA -46.2634 -26.7904 79.1552
CA -35.9693 -10.1294 35.0559
CA -35.6384 -11.8209 33.7796
CA -11.8717 -17.8276 58.9907
CA -41.1211 -16.3419 59.953
CA -38.6708 -30.9752 42.0385
CA -20.6863 9.21987 40.9441
CA -6.31873 -13.7653 8.42343
CA -43.9893 -32.127 58.3704
CA -13.1828 -12.583 19.9949
CA -21.2071 -20.2093 59.1023
CA -6.73437 -27.8797 47.8004
CA -9.23906 -35.6341 44.176
CA -14.7535 -18.4743 83.6721
CA -37.7026 -27.3131 49.6741
CA -12.5873 -15.4677 57.0647
CA -20.2029 7.62657 50.6006
CA -17.5794 -24.1302 63.7416
CA -42.554 -6.64522 60.1859
CA -5.88726 -22.0007 54.0542
CA -41.1517 -5.82015 43.3603
CA -38.3209 -28.3676 73.4783
CA -7.41878 -10.6705 17.8429
CA -26.6829 2.29 42.855
CA -36.8245 -4.15536 60.9837
CA -51.9317 -14.706 55.9693
CA -52.1818 -20.6422 54.8466
CA -24.6065 -40.9082 77.4756
CA -14.5006 -20.6483 28.3106
CA -41.243 -7.16203 66.4543
CA -36.434 -31.3692 74.1488
CA -49.5236 -19.5736 56.7744
CA -49.7496 -5.74231 74.055
CA -17.8012 -21.6719 50.1972
CA -47.1234 -13.1229 48.3817
CA -31.9639 -10.2647 72.3147
CA -23.5688 -29.9715 54.4949
CA -37.906 -15.9127 60.1351
CA -23.4726 -15.5884 34.3627
CA -7.4065 -4.12468 59.6071
CA -27.9925 -32.3433 61.2827
CA -32.4072 -15.4867 56.5956
CA -22.2672 -25.0306 41.1061
CA -24.5989 -7.09325 37.0827
CA -34.2058 -35.3752 56.0808
CA -7.07167 -12.6024 3.64245
CA -17.4308 -29.4449 64.3124
CA -45.1741 -31.6624 48.7858
CA -9.26196 -14.8467 61.4273
CA -53.5561 -21.6926 48.5388
CA -26.5202 -7.9697 37.8623
CA -19.6373 7.22094 45.2339
CA -10.4409 -24.8437 52.7187
CA -29.4271 -20.7277 51.3385
CA -16.2574 -5.47858 52.2988
CA -43.3805 -31.5281 69.0185
CA -50.1947 -19.0623 55.0178
CA -3.62896 -16.845 6.42963
CA -14.2897 -10.4602 6.87433
CA -24.9517 -30.1482 63.2374
CA -21.7263 -40.2667 53.6875
CA -3.6915 -15.9203 17.2707
CA -22.1971 -24.1323 34.9066
CA -14.1641 -27.7206 49.924
CA -20.8403 -20.9243 53.9216
CA -20.1903 -36.7619 38.1328
CA -49.1128 -24.6375 72.4907
CA -19.793 -24.5688 65.5681
CA -15.6824 -12.9876 88.0578
CA -31.0403 -8.65823 32.4148
CA -33.2899 -35.9478 75.8683
CA -15.3859 -27.9049 43.5621
CA -35.6384 -27.9755 68.7162
CA -21.7571 -4.07387 37.5747
CA -49.4623 -11.6902 48.7096
CA -37.4732 -6.14258 58.8902
CA -32.4136 -5.45848 56.5216
CA -4.58896 -27.452 50.0014
CA -26.1272 -39.9024 81.8654
CA -27.3019 12.0581 37.849
CA -18.8739 -12.106 46.7613
CA -11.535 -12.489 55.7369
CA -24.6678 -39.6373 59.1259
CA -53.5037 -18.4306 54.5744
CA -10.0052 -25.0215 57.9737
CA -24.7392 -34.6423 75.7452
CA -12.0648 -11.497 21.237
CA -46.6299 -36.4215 52.6173
CA -12.9568 -13.8878 15.1859
CA -21.2179 -35.0377 51.7205
CA -26.4665 -26.6302 66.0533
CA -57.5358 -20.2077 57.3869
CA -41.4376 -24.8749 50.283
CA -40.9257 -21.5505 54.3971
CA -25.7555 -13.6642 32.4812
CA -17.3986 -3.82382 63.9958
CA -16.7925 -26.0803 58.324
CA -1.88961 -25.3756 51.0932
CA -15.7257 -6.25009 67.1229
CA -28.8782 -3.82007 47.7717
CA -34.0108 -26.8181 33.0586
CA -34.3261 -1.85562 48.6008
CA -29.4796 -32.2941 32.4227
CA -33.4091 -9.8455 74.4065
CA -32.4206 -22.8641 36.7272
CA -32.2985 -33.8154 34.5398
CA -12.9294 -19.581 21.9231
CA -39.3798 -11.7123 76.6168
CA -22.926 -19.6627 57.2774
CA -33.4853 -32.2407 64.21
CA -21.441 -22.2093 75.747
CA -27.8436 -6.47251 41.7024
CA -8.80959 -11.4728 19.0834
CA -9.49512 -12.6516 6.94631
CA -31.146 9.37096 39.552
CA -24.4241 -9.7649 63.7551
CA -38.6215 -9.21932 68.7618
CA -7.87238 -9.02469 9.55524
CA -38.4268 -16.3096 58.1533
CA -34.5004 -35.408 40.9406
CA -28.117 -19.1247 72.5575
CA -33.6972 -11.8749 66.9794
CA -48.2117 -30.8545 46.0389
CA -50.4677 -15.2484 45.5429
CA -33.7584 -3.98229 59.2388
CA -29.0564 -26.6906 57.6751
CA -14.1186 -21.4733 42.8446
CA -40.6042 -29.2605 50.5294
CA -21.8137 -45.0374 61.111
CA -47.6621 -9.24139 52.1039
CA -18.1576 -25.7614 44.4037
CA -44.0282 -22.2455 68.5926
CA -21.1435 -19.0796 61.1113
CA -31.6005 4.9309 41.0343
CA -24.1977 -8.48404 39.4154
CA -50.5837 -18.0357 51.3891
CA -25.9888 -21.0694 83.3794
CA -11.889 -24.9412 56.0032
CA -15.9633 -28.07 60.5207
CA -22.0907 8.01993 45.676
CA -9.03535 -2.77433 57.8034
CA -35.7248 -24.2643 44.6224
CA -24.248 2.62288 41.348
CA -13.6813 -4.24677 38.7164
CA -51.808 -19.1105 43.8485
CA -30.5012 -20.2261 83.7338
CA -23.3344 -3.20924 58.5573
CA -21.0402 -0.601951 43.7555
CA -49.3004 -30.2673 59.7465
CA -13.5699 -5.13667 52.166
CA -37.9219 -33.1866 43.2525
CA -36.2572 -24.771 33.4354
CA -28.9965 -2.28451 53.493
CA -14.4725 -19.6258 31.1776
CA -25.2411 -33.1255 49.4027
CA -28.4181 -35.2967 41.6421
CA -22.5204 -0.160146 35.6204
CA -16.7292 -14.1201 45.8253
CA -29.4096 -17.1002 39.7899
CA -9.90213 0.0976575 60.4868
CA -31.0645 -1.18322 55.5528
CA -15.9819 -11.5569 34.0682
CA -43.8917 -9.06422 70.4558
CA -29.6154 -12.9405 40.221
CA -39.2502 -39.9094 42.6802
CA -41.7157 -14.7694 53.8143
CA -8.23181 -10.6452 2.39135
CA -34.3118 -31.9833 43.5935
CA -27.3383 -19.1586 78.5981
CA -6.83003 -9.60559 6.33574
CA -12.1877 -20.9849 40.5969
CA -10.5842 -36.0518 47.35
CA -15.5969 -35.6419 44.0365
CA -52.9079 -25.4499 68.5511
CA -6.37915 -22.8366 50.9496
CA -30.3641 -5.63533 53.2464
CA -17.7023 -10.7388 46.1387
CA -13.5962 -16.1336 26.2413
CA -32.8811 9.03352 40.1969
CA -34.3029 -12.3079 47.5122
CA -30.0399 -37.9279 79.4348
CA -18.3186 -19.8375 23.2501
CA -41.1745 -16.6349 56.9689
CA -12.6819 -18.4954 25.9
CA -24.7982 -20.0024 48.1778
CA -30.7171 -8.01901 76.2301
CA -12.299 -17.7733 15.0027
CA -40.51 -9.49683 74.6465
CA -13.191 -20.2006 26.9103
CA -24.1872 -37.0432 40.2148
CA -17.6025 -37.1151 73.4638
CA -21.3367 -9.88085 33.3105
CA -38.013 -13.9851 34.7613
CA -44.0413 -12.4198 56.1625
CA -12.9931 -16.5645 55.6846
CA -45.6679 -6.86878 73.7297
CA -17.762 -10.8109 61.5575
CA -23.5837 -20.8477 33.3693
CA -33.8308 -40.6137 40.4725
CA -56.1914 -11.9195 53.6575
CA -39.0769 -7.79259 57.1829
CA -20.9297 -26.6715 80.558
CA -14.2255 -12.9557 30.8826
CA -54.1008 -25.0388 59.3374
CA -9.10592 -14.6837 58.2661
CA -42.5722 -8.29457 60.9609
CA -34.8682 -10.7953 79.3192
CA -10.0059 -6.89617 48.8935
CA -26.565 -12.0027 32.4192
CA -27.1449 -31.4798 46.0042
CA -45.4473 -14.0944 51.8083
CA -25.2774 -38.4537 48.2511
CA -41.7817 -30.5854 73.2758
CA -34.6641 -8.79721 42.6823
CA -31.0215 -5.04378 74.6366
CA -25.2315 -1.36438 41.9985
CA -27.3019 -3.77139 42.8081
CA -33.0835 -31.7022 68.2176
CA -26.9765 -15.733 30.8855
CA -16.0386 -13.2729 31.5665
CA -28.8706 -25.799 55.8152
CA -39.1101 -37.4403 40.5862
CA -14.545 -30.7688 48.633
CA -25.9558 -11.2498 68.0712
CA -41.7143 -29.5919 53.2925
CA -3.00523 -20.7239 55.1551
CA -41.6001 -33.56 53.8283
CA -42.7618 -26.7309 78.4995
CA -9.39869 -30.7413 45.442
CA -25.3067 -13.9077 76.4202
CA -9.62236 -10.5341 51.7711
CA -41.339 -6.40133 69.9058
CA -20.1867 -15.6439 50.5097
CA -32.1814 -38.7053 41.2076
CA -27.8987 -30.2256 67.4697
CA -19.2694 -13.0881 76.2239
CA -37.7463 -4.7869 71.4221
CA -25.8414 -42.8922 58.1647
CA -28.4075 -37.0539 73.0121
CA -36.927 -11.7977 42.8398
CA -27.8108 -5.34814 57.3349
CA -22.8482 -22.1693 63.0265
CA -13.0971 -7.52322 10.2424
CA -33.1436 -29.3901 34.8353
CA -33.913 -9.18863 49.1747
CA -26.8333 -18.0368 60.2254
CA -21.2119 -34.1627 72.3579
CA -29.3192 -20.2045 39.0534
CA -55.0152 -22.2849 62.4252
CA -31.0916 -24.6818 53.7032
CA -29.8383 -23.6025 39.6089
CA -11.658 -20.723 82.1352
CA -47.4856 -15.6717 45.045
CA -16.0103 -17.1333 61.3464
CA -30.6667 -16.7523 41.3745
CA -41.0344 -3.94035 74.2756
CA -26.4156 -16.2585 43.7822
CA -36.9133 -5.06407 37.9686
CA -13.3216 -22.4172 45.3873
CA -49.9149 -32.1054 59.3318
CA -46.9323 -23.8152 56.7762
CA -34.3943 -30.0156 44.2153
CA -11.5936 -9.37942 15.3528
CA -30.1126 -13.5593 30.621
CA -52.9879 -32.077 62.6252
CA -43.4535 -35.0429 64.83
CA -45.4495 -26.7146 73.4655
CA -16.8682 -21.4825 48.6074
CA -17.1824 -18.2927 88.7418
CA -13.0147 -26.8224 65.1064
CA -32.6497 4.75559 46.2901
CA -39.2694 -10.434 70.1121
CA -11.9147 -15.8697 64.9442
CA -20.775 -7.79795 66.2166
CA -31.3639 -22.6484 32.7143
CA -15.4518 -37.7184 43.5667
CA -23.0147 -23.7728 80.313
CA -22.1618 -32.235 51.477
CA -40.2733 -5.62906 49.937
CA -36.0019 -16.4515 59.9247
CA -13.2867 -17.7754 30.2385
CA -22.9341 -40.1796 48.1961
CA -30.6065 -15.8577 26.1485
CA -28.0279 -20.3025 46.4685
CA -21.2399 -22.9776 44.1602
CA -8.20512 -14.9154 54.5752
CA -8.91774 -18.9641 59.9011
CA -23.1222 -20.3876 41.8774
CA -28.3052 -0.051374 52.7564
CA -8.20275 -32.6769 41.6916
CA -36.2733 3.23865 47.8803
CA -29.3714 -33.478 71.9581
CA -6.27949 -30.7492 44.8891
CA -26.4427 -22.0019 43.5919
CA -21.0019 -23.6963 37.2698
CA -56.2304 -23.0067 59.9056
CA -24.5757 -21.8985 77.8904
CA -35.553 -13.3792 57.3434
CA -11.9056 -2.22808 59.9878
CA -17.6335 -39.7851 43.442
CA -28.7104 -6.53128 71.511
CA -2.05468 -9.74411 6.25854
CA -13.8196 -37.0137 44.0233
CA -18.8668 -18.9522 81.3456
CA -31.1162 -19.1021 73.7351
CA -29.9398 -34.497 61.2254
CA -46.5059 -32.5088 50.0027
CA -49.9789 -25.6555 66.2797
CA -24.5966 -17.1343 76.4188
CA -41.7263 -17.5797 49.3503
CA -13.9703 -6.88486 71.0094
CA -14.7071 -16.521 23.5161
CA -19.1856 -27.4171 41.0638
CA -31.1046 -12.783 52.3194
CA -36.7143 -20.4219 70.1502
CA -6.38825 -9.14502 4.49902
CA -36.8073 -10.4823 74.3901
CA -9.03665 -29.6081 39.2029
CA -18.5622 -12.9798 78.4079
CA -33.8618 -4.51153 55.7976
