489

CA -18.6453 -10.5977 49.9273
CA -29.8978 -22.0226 78.0246
CA -21.1733 -26.8692 40.0962
CA -61.0703 -23.3407 65.3714
CA -21.5642 -11.9535 69.9692
CA -45.714 -23.915 45.7895
CA -45.5381 -27.4533 63.2523
CA -37.399 -39.0603 38.8063
CA -27.747 -19.5654 34.2784
CA -25.2928 -24.3649 69.2918
CA -21.3065 -3.446 72.4743
CA -16.7532 -15.1759 30.0652
CA -10.0114 -15.3996 23.4886
CA -16.6764 -28.7849 60.057
CA -31.2102 -18.8877 74.3384
CA -0.632044 -24.6939 48.5407
CA -56.9321 -17.1997 58.0654
CA -35.6013 -27.3217 31.2378
CA -50.6064 -30.224 48.5981
CA -37.9169 -12.827 38.0306
CA -40.6737 -17.5792 51.9866
CA -38.4341 -30.7844 55.1651
CA -22.0429 -28.2923 61.1575
CA -26.3951 -34.2299 37.2052
CA -15.8563 -12.085 63.0621
CA -36.2996 -12.8861 54.7903
CA -33.8894 -5.98126 38.803
CA -35.9055 -6.6839 34.0112
CA -35.8968 -28.8491 44.5903
CA -19.0322 -3.14985 47.9237
CA -16.5778 -38.0997 46.1176
CA -32.9583 -31.0771 66.9321
CA -10.555 -11.7234 2.80632
CA -47.049 -24.836 69.9581
CA -18.3436 -7.33966 64.2272
CA -27.8567 -11.3009 85.8739
CA -47.4777 -21.9981 59.6817
CA -38.7797 -16.0232 74.4152
CA -39.7979 -25.6261 36.4554
CA -22.862 -4.25701 62.2279
CA -20.7981 -21.8127 36.7872
CA -23.3507 -6.90079 30.8432
CA -47.7546 -13.0424 53.5296
CA -37.9959 -22.8406 49.3228
CA -59.9365 -23.4717 67.0285
CA -29.9529 -30.8813 38.9309
CA -10.9903 -35.1038 50.8672
CA -28.5582 -29.0889 46.2056
CA -16.0647 -31.3016 52.3487
CA -33.1107 -7.60343 43.4018
CA -23.084 -29.5215 33.1436
CA -21.7923 -13.0487 40.6311
CA -41.6433 -12.2556 34.0925
CA -36.9205 -26.4703 39.7857
CA -12.5996 -15.401 55.9456
CA -7.62778 -20.8444 43.6108
CA -40.5558 -35.2204 50.0189
CA -40.3013 -29.7352 37.2456
CA -35.6787 -34.2629 31.2818
CA -17.2391 -39.0307 40.1352
CA -47.6731 -28.6755 46.5136
CA -36.1131 -39.5862 74.4632
CA -46.7992 -6.22077 68.2697
CA -19.3422 -11.5919 62.1693
CA -9.0885 -16.7195 51.9499
CA -20.127 -7.9392 31.2353
CA -13.6583 -8.8675 12.026
CA -41.4313 -8.22296 53.8412
CA -17.3449 -12.0642 29.3785
CA -46.3872 -23.444 49.0852
CA -28.0566 4.98737 42.2726
CA -36.4451 -17.8621 66.1154
CA -37.89 -15.7294 48.6399
CA -31.8619 -3.95816 50.8156
CA -28.5131 -24.467 58.873
CA -13.4347 -23.5941 49.9146
CA -29.8791 -11.0707 77.4685
CA -32.1287 -13.9319 54.8451
CA -28.1469 3.69432 43.6045
CA -8.99398 -16.2417 17.3137
CA -36.5105 -34.8193 46.1398
CA -32.9663 -27.0917 47.4244
CA -24.6286 -22.225 82.7263
CA -19.681 -3.00284 60.7321
CA -29.8379 -5.89111 40.2471
CA -11.5088 -9.03293 6.89786
CA -29.4564 -20.1267 73.3395
CA -20.5274 -8.39711 45.572
CA -27.2659 -26.3941 70.0578
CA -25.0293 -12.1896 36.849
CA -32.0583 -19.951 56.9781
CA -17.2898 -6.31568 23.6659
CA -26.4584 -27.3947 61.3635
CA -17.8534 -9.51088 71.0139
CA -22.1914 -35.9675 45.7693
CA -6.98827 -15.7813 62.5144
CA -55.7545 -23.6377 65.0544
CA -27.3323 -34.4614 35.3223
CA -11.3076 -34.0839 47.0865
CA -49.8288 -13.5127 55.8412
CA -48.6545 -23.1872 52.2195
CA -32.9384 -35.5106 74.0046
CA -21.2559 -38.0519 78.4659
CA -54.6249 -21.2995 53.2208
CA -28.7649 -14.1987 77.3249
CA -27.5724 -6.36737 43.6604
CA -31.3256 -25.9902 32.2846
CA -17.8558 -7.40263 72.4119
CA -19.9513 -3.89209 43.3917
CA -33.8377 -25.6155 76.891
CA -14.4337 -4.57148 58.6725
CA -26.0058 -15.8178 82.6494
CA -9.29563 -10.088 15.6689
CA -18.3171 2.84732 37.0154
CA -55.7464 -21.8914 61.0144
CA -28.7807 -40.7701 85.6636
CA -29.0116 -18.4788 48.3367
CA -4.8896 -9.60839 10.3751
CA -38.9964 -27.1175 63.0335
CA -29.8422 -16.4752 54.6487
CA -22.382 -26.4463 34.5892
CA -57.8316 -20.4746 62.524
CA -18.2664 -30.3905 32.6478
CA -31.1519 -28.273 26.4356
CA -16.7973 -24.7145 43.8199
CA -30.0416 -14.7403 74.7053
CA -21.6049 4.92857 41.4115
CA -27.9756 -5.01046 42.2702
CA -36.2971 -12.1344 37.1352
CA -27.9674 4.69239 39.1559
CA -35.0506 -24.7119 50.4202
CA -40.2689 -13.7717 76.546
CA -30.2266 -33.0786 59.8533
CA -26.2347 -32.7703 51.094
CA -48.0445 -30.8622 46.0093
CA -15.025 -2.00062 62.0304
CA -38.7292 -20.6692 49.0542
CA -58.9946 -19.5098 54.5244
CA -31.763 -32.6327 46.8333
CA -30.1288 -15.6453 35.4255
CA -50.6867 -17.3309 54.2697
CA -38.1718 -14.3197 71.9247
CA -14.0147 -12.9091 61.3026
CA -18.4942 -21.6825 92.9976
CA -20.322 -6.32966 35.449
CA -29.902 -17.0337 49.1961
CA -23.6294 -15.5799 57.1559
CA -32.82 -14.8718 52.3421
CA -35.7172 -30.8868 63.1772
CA -16.4884 -26.7836 57.386
CA -12.9242 -20.9256 46.6651
CA -45.1665 -29.3321 80.3003
CA -30.5885 -22.3002 49.9036
CA -41.9829 -32.4905 71.9463
CA -6.76607 -16.8222 59.899
CA -12.899 -27.3128 61.3268
CA -21.7127 -18.9447 85.7418
CA -35.6459 -28.3579 49.1016
CA -24.5397 -11.2003 42.2943
CA -27.8679 -16.7244 74.0078
CA -32.3124 -8.32428 47.089
CA -54.4224 -26.8074 66.9572
CA -27.2318 -32.4108 49.1546
CA -20.9984 1.00901 41.952
CA -38.9666 -30.4882 57.5835
CA -22.4843 -37.4098 79.6801
CA -37.6404 -5.11616 59.6383
CA -35.9359 -33.5331 71.9437
CA -41.0396 -7.57312 70.3372
CA -34.2225 -23.4411 73.4936
CA -36.8866 -34.2581 39.4797
CA -37.5167 -34.3397 42.6413
CA -31.5545 -35.8578 63.4525
CA -38.0611 -16.185 72.5768
CA -38.0376 -18.466 67.7941
CA -43.8525 -9.84143 62.454
CA -6.31873 -13.7653 8.42343
CA -26.1233 -2.84794 52.8482
CA -50.2393 -36.851 46.0571
CA -43.2348 -39.9903 76.2345
CA -21.1143 0.280628 39.224
CA -9.23906 -35.6341 44.176
CA -24.4365 -12.5519 43.6973
CA -19.842 -13.4324 44.6377
CA -46.3008 -5.4603 63.1693
CA -37.0582 -18.4093 73.3657
CA -19.3792 -22.5147 56.9827
CA -42.554 -6.64522 60.1859
CA -18.3849 -29.6106 62.1077
CA -27.4728 -29.1362 54.7967
CA -31.33 -22.3815 28.7889
CA -7.41878 -10.6705 17.8429
CA -57.7463 -22.0751 49.2414
CA -34.8168 -2.15077 59.1135
CA -46.8277 -22.9699 75.568
CA -18.6928 -38.0109 71.208
CA -24.6065 -40.9082 77.4756
CA -37.3501 -20.3277 71.6346
CA -41.243 -7.16203 66.4543
CA -41.5903 -25.363 54.4383
CA -49.5236 -19.5736 56.7744
CA -49.7496 -5.74231 74.055
CA -28.6085 -29.0174 57.9877
CA -47.1234 -13.1229 48.3817
CA -10.8712 -4.32194 62.2438
CA -25.2378 -35.4408 33.029
CA -23.4057 -25.6161 45.6183
CA -35.3594 -33.2475 49.0893
CA -33.5652 -27.9322 49.224
CA -54.7275 -23.5124 55.2317
CA -32.4072 -15.4867 56.5956
CA -22.2672 -25.0306 41.1061
CA -49.5538 -13.2512 47.2379
CA -34.2058 -35.3752 56.0808
CA -7.07167 -12.6024 3.64245
CA -32.3144 -5.78204 61.3979
CA -32.3918 -33.3075 28.8573
CA -9.26196 -14.8467 61.4273
CA -46.1461 -14.1493 44.7577
CA -41.7633 -29.6748 65.0102
CA -49.1384 -28.8535 49.6052
CA -24.0032 -32.5274 36.1696
CA -11.836 -7.64342 30.174
CA -21.4071 -21.4854 53.22
CA -25.8272 -34.915 77.7296
CA -45.7837 -33.469 56.3787
CA -10.8806 -14.3453 14.4405
CA -14.2897 -10.4602 6.87433
CA -55.4824 -22.562 70.3242
CA -13.1166 -16.944 2.14564
CA -3.6915 -15.9203 17.2707
CA -39.4045 -35.8859 64.9192
CA -14.1641 -27.7206 49.924
CA -44.496 -5.2113 74.0851
CA -41.8634 -3.86086 55.4613
CA -18.9348 -10.2419 52.2449
CA -33.983 -35.1529 34.6235
CA -49.9237 -11.8957 52.3245
CA -28.1387 -23.0339 73.6416
CA -33.2899 -35.9478 75.8683
CA -20.3369 -20.3531 55.9021
CA -19.5263 -11.7833 59.6372
CA -27.9199 -33.9796 78.9374
CA -12.161 -38.9561 43.5354
CA -44.788 -24.4017 68.8714
CA -32.4136 -5.45848 56.5216
CA -4.58896 -27.452 50.0014
CA -26.1272 -39.9024 81.8654
CA -4.31828 -33.4713 43.1516
CA -16.0467 -26.198 46.3877
CA -23.1735 -12.3374 60.0759
CA -12.6195 -4.83846 53.6799
CA -57.6028 -26.0216 67.1841
CA -10.0052 -25.0215 57.9737
CA -48.2519 -25.7808 46.1516
CA -12.0648 -11.497 21.237
CA -46.6299 -36.4215 52.6173
CA -12.9568 -13.8878 15.1859
CA -40.8626 -35.87 71.6783
CA -28.4907 -12.8782 84.7377
CA -32.6262 -25.5291 59.7518
CA -56.5459 -21.5716 57.34
CA -10.4399 -9.49645 59.8485
CA -46.5924 -28.3126 60.5571
CA -17.3986 -3.82382 63.9958
CA -18.2625 -10.9475 30.6631
CA -26.7397 -15.6159 32.3587
CA -51.1116 -21.9342 62.4022
CA -44.9589 -22.2443 58.1092
CA -34.9225 0.302371 60.3389
CA -34.4286 -23.1805 36.4441
CA -10.4698 -30.1461 54.3463
CA -17.6769 -5.36822 30.3942
CA -23.4342 -14.3788 72.5502
CA -37.3781 -11.3045 72.6348
CA -44.262 -35.7694 68.4391
CA -50.0116 -23.8586 77.3011
CA -25.9494 -21.0762 83.2057
CA -25.8506 -7.59815 67.0742
CA -35.9547 -27.8378 40.7156
CA -32.5667 -35.8434 39.3555
CA -8.80959 -11.4728 19.0834
CA -44.1577 -39.7216 71.9413
CA -35.302 -9.96708 43.5873
CA -39.3229 -2.67857 41.0039
CA -23.797 -21.5289 57.6443
CA -42.2795 -2.34793 70.283
CA -51.7534 -1.41637 78.4142
CA -28.6123 -4.73895 64.6613
CA -28.117 -19.1247 72.5575
CA -31.5309 -21.1598 48.7886
CA -23.6287 -38.4678 81.2323
CA -50.4677 -15.2484 45.5429
CA -11.9856 -14.6117 2.28974
CA -15.6595 -31.3154 47.3758
CA -38.2228 -36.6902 56.7485
CA -26.8181 -34.5629 74.922
CA -30.3667 -16.7365 39.5324
CA -29.8819 -25.6985 57.7973
CA -28.8031 -16.7225 37.7454
CA -44.0282 -22.2455 68.5926
CA -11.1429 -29.7927 51.711
CA -7.24513 -15.8858 55.9707
CA -38.0288 -9.42948 56.5568
CA -29.6445 -1.44284 55.3779
CA -12.3504 -3.04804 49.223
CA -37.6191 -34.5172 48.6068
CA -36.0433 -34.2403 33.6292
CA -30.3695 4.27788 47.0063
CA -54.2649 -28.8015 65.3894
CA -25.643 -6.69689 63.0902
CA -29.5704 -35.0126 61.6105
CA -15.7769 -7.29007 55.3731
CA -36.8127 -5.32691 43.9402
CA -20.0003 -11.3875 56.7476
CA -27.7095 -15.5748 60.0023
CA -42.0193 -3.7392 58.8584
CA -49.3004 -30.2673 59.7465
CA -13.5699 -5.13667 52.166
CA -35.3071 -19.4201 52.4445
CA -16.5619 -27.0936 66.2646
CA -24.2701 -32.7663 31.0585
CA -14.4725 -19.6258 31.1776
CA -24.386 -21.3434 54.3409
CA -23.6491 -26.1112 43.4943
CA -36.1523 -31.6712 70.8178
CA -37.7351 -22.4229 51.403
CA -13.9705 -8.82095 29.42
CA -45.95 -25.9898 52.29
CA -28.3316 -14.4507 39.5216
CA -3.42774 -23.6416 51.2176
CA -10.5942 -20.3394 48.0453
CA -33.0491 -13.8145 50.9006
CA -39.2502 -39.9094 42.6802
CA -36.5443 -31.5787 60.7392
CA -35.5272 -12.6804 78.1309
CA -48.3617 -25.0505 66.4078
CA -27.3383 -19.1586 78.5981
CA -24.4662 -29.4867 66.5969
CA -29.1899 -33.9944 52.7983
CA -22.1933 -8.4919 42.3778
CA -15.5969 -35.6419 44.0365
CA -52.9079 -25.4499 68.5511
CA -6.37915 -22.8366 50.9496
CA -17.7181 -6.23825 66.7697
CA -32.1098 -30.978 58.6901
CA -38.7013 -26.953 73.3658
CA -16.5742 -6.62549 65.2647
CA -34.3029 -12.3079 47.5122
CA -22.7709 -9.08056 5.51518
CA -27.9686 -23.2667 68.8172
CA -41.1745 -16.6349 56.9689
CA -36.0023 -29.5514 58.0532
CA -24.7982 -20.0024 48.1778
CA -34.4097 -36.1325 66.85
CA -12.299 -17.7733 15.0027
CA -43.6873 -15.7266 59.5388
CA -22.5875 -7.76856 60.7823
CA -53.564 -21.1418 57.596
CA -18.7447 -26.3863 55.2298
CA -21.3367 -9.88085 33.3105
CA -12.6223 -17.2437 57.6052
CA -28.2047 -21.8598 27.3513
CA -49.9288 -11.5921 42.298
CA -15.9163 -20.2743 44.208
CA -12.5883 -31.7436 43.7041
CA -27.3225 -38.8979 38.0294
CA -8.17312 -24.2651 48.1877
CA -36.8361 -7.27719 41.2198
CA -39.0769 -7.79259 57.1829
CA -10.9082 -17.4625 3.94835
CA -18.7383 -18.9732 90.177
CA -28.616 -31.1767 74.1055
CA -12.1482 -8.98504 71.2466
CA -42.4364 -10.2475 64.1204
CA -34.8682 -10.7953 79.3192
CA -22.0465 -2.47099 45.0356
CA -60.6249 -19.965 53.3667
CA -33.91 -33.6945 65.0972
CA -56.8049 -17.3301 50.8401
CA -14.9352 -10.2965 55.9013
CA -19.1401 -15.975 41.7758
CA -16.8606 -9.15971 3.98168
CA -59.284 -18.2356 57.9767
CA -25.2315 -1.36438 41.9985
CA -16.5068 -7.88544 70.4606
CA -36.0723 -25.3842 37.2411
CA -13.59 -30.4791 62.3223
CA -21.2752 -3.33342 46.8069
CA -28.8706 -25.799 55.8152
CA -12.1253 -19.2004 47.6658
CA -33.1177 -32.2838 60.1866
CA -23.995 -17.9219 34.8378
CA -28.0665 -18.1748 32.4742
CA -10.8577 -9.38663 3.44252
CA -31.3025 -32.3293 75.3568
CA -42.7618 -26.7309 78.4995
CA -26.5247 -27.9163 59.5554
CA -37.1792 -15.9135 75.5817
CA -14.336 -24.6189 64.4013
CA -45.305 -28.5031 78.5783
CA -24.5368 -22.436 55.8772
CA -18.8425 -27.6355 51.9951
CA -17.2801 -32.2239 59.7021
CA -37.7872 -37.33 48.5915
CA -26.6754 3.71749 41.4323
CA -50.2047 -5.29788 77.8201
CA -28.4075 -37.0539 73.0121
CA -26.7561 -33.7991 43.891
CA -42.4815 -13.7571 61.9825
CA -19.1793 -10.3056 5.29833
CA -32.9226 -4.76065 52.6394
CA -45.7101 -28.9992 47.4497
CA -35.2844 -0.609361 62.1075
CA -26.8333 -18.0368 60.2254
CA -21.2119 -34.1627 72.3579
CA -29.3192 -20.2045 39.0534
CA -38.1 -27.7962 53.9879
CA -42.1616 -39.0832 50.7099
CA -16.3691 -3.06783 61.3393
CA -38.1789 -28.0623 68.7029
CA -24.1835 -12.9071 62.2015
CA -21.1138 -22.41 41.9712
CA -32.5163 -17.1585 58.0827
CA -25.2445 -22.6369 70.5234
CA -45.2389 -33.2411 45.3482
CA -49.9616 -11.6669 55.5008
CA -54.4532 -27.0871 69.0121
CA -34.6101 -27.6656 67.6065
CA -32.1647 -4.98128 47.2502
CA -21.3081 -37.2038 70.1789
CA -11.5936 -9.37942 15.3528
CA -21.0475 -5.19763 31.2304
CA -45.3171 -9.37947 52.9753
CA -43.4535 -35.0429 64.83
CA -45.4495 -26.7146 73.4655
CA -29.8128 -36.8099 46.5326
CA -40.7202 -5.28589 61.2884
CA -16.5934 -2.04675 58.6317
CA -16.0942 2.72341 57.1337
CA -21.3813 0.0198919 49.8417
CA -41.8487 -13.1692 75.4482
CA -38.2186 -34.0167 70.8845
CA -25.613 -25.3503 34.3656
CA -37.7366 -30.2072 41.3302
CA -22.6373 -28.9081 51.8188
CA -22.1618 -32.235 51.477
CA -40.2733 -5.62906 49.937
CA -19.3564 -23.2514 54.7379
CA -44.562 -32.2884 60.6592
CA -24.1929 -38.6792 73.161
CA -54.0329 -20.0125 72.5695
CA -17.3983 -13.2628 73.7183
CA -37.2015 -29.5385 50.598
CA -8.20512 -14.9154 54.5752
CA -41.6322 -37.4426 70.8056
CA -18.88 -2.51928 66.0993
CA -20.3842 -11.077 41.8743
CA -34.1999 -13.9846 41.8431
CA -22.4262 -16.9155 85.6742
CA -22.3149 -26.3047 31.7693
CA -16.678 -8.44523 26.5397
CA -26.4427 -22.0019 43.5919
CA -21.0019 -23.6963 37.2698
CA -12.7326 -12.7148 25.8265
CA -7.2633 -25.5332 53.3805
CA -42.5445 -12.9605 55.2311
CA -13.8716 -38.1503 44.4782
CA -17.6335 -39.7851 43.442
CA -41.3769 -22.8812 76.0971
CA -50.6157 -14.545 42.1111
CA -15.9843 -9.84559 69.4982
CA -30.2785 -30.2813 41.6447
CA -12.2932 -32.6491 42.1517
CA -45.5601 -16.1982 44.4068
CA -26.559 8.34316 40.171
CA -29.7868 -11.5205 48.1463
CA -52.2876 -14.2033 52.8506
CA -26.8455 -8.79423 63.1992
CA -11.3189 -8.26698 1.8973
CA -45.8571 -36.1544 47.0579
CA -32.4681 -17.9265 39.6348
CA -48.8372 -23.5246 60.1249
CA -46.1574 -18.5279 44.7795
CA -6.38825 -9.14502 4.49902
CA -55.8666 -21.6233 50.0181
CA -30.8471 -30.3961 33.0494
CA -26.5627 -42.7731 72.0944
CA -33.2604 -7.27668 56.3178
