489

CA -44.5229 -23.972 36.11
CA -29.8978 -22.0226 78.0246
CA -37.7247 -36.5281 38.1421
CA -30.8589 -30.7017 61.9484
CA -27.747 -32.7614 66.6656
CA -55.0233 -43.2947 48.7392
CA -45.5381 -27.4533 63.2523
CA -37.399 -39.0603 38.8063
CA -30.0518 -25.6236 34.4295
CA -48.6479 -29.0608 57.9357
CA -15.7464 -42.3899 42.408
CA -16.7532 -15.1759 30.0652
CA -29.6772 -32.5327 80.1524
CA -43.5235 -10.9004 34.5866
CA -36.9629 -3.19708 51.9408
CA -26.1242 -27.2386 71.324
CA -20.0249 -35.645 48.1209
CA -35.6013 -27.3217 31.2378
CA -21.8798 -4.06378 61.8778
CA -37.9169 -12.827 38.0306
CA -30.9014 -1.67893 48.224
CA -48.3235 -25.8894 78.2882
CA -22.0429 -28.2923 61.1575
CA -31.269 -41.5821 75.9878
CA -15.8563 -12.085 63.0621
CA -36.2996 -12.8861 54.7903
CA -11.3512 -15.522 53.4596
CA -28.445 -13.1665 87.5949
CA -20.4001 -17.8587 33.8793
CA -25.7254 -20.3558 38.9177
CA -43.9913 -22.8017 74.1233
CA -32.9583 -31.0771 66.9321
CA -12.3906 -6.11189 57.2759
CA -47.049 -24.836 69.9581
CA -9.53429 -26.6185 50.3252
CA -22.3305 0.89717 46.0656
CA -34.0739 -28.6111 36.3533
CA -40.5056 -26.1252 71.7378
CA -22.2216 -10.3453 38.8718
CA -17.3157 -29.323 65.2811
CA -18.7742 -21.5527 55.399
CA -40.3825 -32.6167 36.5355
CA -6.59447 -23.3975 43.8107
CA -43.3725 -38.7733 65.2921
CA -50.1739 -17.8591 60.9857
CA -29.9529 -30.8813 38.9309
CA -38.208 -32.5134 39.9001
CA -30.5118 -2.98127 60.7041
CA -28.309 -29.7499 43.1521
CA -33.1107 -7.60343 43.4018
CA -38.2488 -3.40224 42.4095
CA -29.9813 -23.1469 51.9521
CA -41.6433 -12.2556 34.0925
CA -16.8838 -33.015 51.9901
CA -12.5996 -15.401 55.9456
CA -35.9208 -5.73032 60.7047
CA -25.1603 -3.94752 63.2939
CA -16.5624 -14.1585 32.6361
CA -11.7681 -3.53708 57.2899
CA -21.0742 -8.92241 30.9721
CA -37.0839 -10.0318 71.6717
CA -48.9688 -22.1893 46.0829
CA -12.5655 -32.9504 63.8743
CA -19.3422 -11.5919 62.1693
CA -30.9163 -0.129053 56.8581
CA -21.2225 -33.3038 39.9073
CA -13.6583 -8.8675 12.026
CA -54.9837 -21.9142 60.1247
CA -6.24279 -27.9806 46.1916
CA -46.3872 -23.444 49.0852
CA -36.244 -24.3036 48.1674
CA -38.037 -14.1486 79.4663
CA -25.4508 -12.1337 71.7382
CA -31.8619 -3.95816 50.8156
CA -49.5597 -23.839 66.2938
CA -13.4347 -23.5941 49.9146
CA -29.8791 -11.0707 77.4685
CA -32.1287 -13.9319 54.8451
CA -31.4505 -0.339501 53.1587
CA -8.99398 -16.2417 17.3137
CA -36.5105 -34.8193 46.1398
CA -35.5398 -17.8284 54.1734
CA -40.9765 -8.94884 44.8773
CA -37.2254 -16.7101 59.8204
CA -20.2951 -35.7224 42.7187
CA -11.5088 -9.03293 6.89786
CA -27.5062 -16.7956 64.4628
CA -31.0594 2.88279 39.3772
CA -43.4023 -25.1572 71.4776
CA -25.0293 -12.1896 36.849
CA -51.7044 -15.3159 59.9555
CA -19.5423 -22.6627 60.1463
CA -26.4584 -27.3947 61.3635
CA -56.9016 -18.3118 62.6433
CA -26.1279 -15.343 76.1967
CA -18.5415 -4.88363 73.4377
CA -55.7545 -23.6377 65.0544
CA -27.3323 -34.4614 35.3223
CA -37.8308 -37.287 44.2126
CA -34.3155 -5.79838 53.7661
CA -31.5907 -21.8383 34.3502
CA -20.6601 -0.266659 43.9567
CA -21.2559 -38.0519 78.4659
CA -18.9249 -3.54217 67.5857
CA -25.8196 -26.6285 66.8518
CA -27.5724 -6.36737 43.6604
CA -17.9043 -23.2636 53.5601
CA -21.3141 -0.843831 70.8627
CA -19.9513 -3.89209 43.3917
CA -35.8046 -17.723 40.7656
CA -14.4337 -4.57148 58.6725
CA -26.0058 -15.8178 82.6494
CA -9.29563 -10.088 15.6689
CA -18.3171 2.84732 37.0154
CA -53.5575 -39.2089 47.1563
CA -28.7807 -40.7701 85.6636
CA -29.0116 -18.4788 48.3367
CA -4.8896 -9.60839 10.3751
CA -52.5257 -31.9631 59.5737
CA -29.8422 -16.4752 54.6487
CA -27.0765 -24.7032 67.6266
CA -46.5139 -23.5842 72.5357
CA -23.6209 -28.4708 49.9507
CA -53.2355 1.37547 75.4684
CA -20.3172 -10.2725 69.0311
CA -30.0416 -14.7403 74.7053
CA -17.4187 -30.4858 63.3806
CA -30.6529 -17.5553 77.791
CA -14.3178 -18.2114 52.9942
CA -9.32804 -9.20757 5.31745
CA -35.0506 -24.7119 50.4202
CA -31.7312 -39.8903 35.1307
CA -3.14327 -28.3761 46.1004
CA -23.8808 -33.7043 58.8652
CA -25.7901 -5.46428 59.9256
CA -15.025 -2.00062 62.0304
CA -20.8999 -14.266 32.0076
CA -12.275 -11.6668 6.08343
CA -31.763 -32.6327 46.8333
CA -40.7558 -23.5123 51.9303
CA -38.9032 -16.355 47.0917
CA -38.1718 -14.3197 71.9247
CA -22.6699 -14.8122 61.2066
CA -18.4942 -21.6825 92.9976
CA -20.322 -6.32966 35.449
CA -30.9571 -32.6123 77.6408
CA -23.6294 -15.5799 57.1559
CA -32.82 -14.8718 52.3421
CA -40.8974 -1.83558 61.3323
CA -16.8798 -7.28799 31.2484
CA -12.9242 -20.9256 46.6651
CA -38.8967 -22.5061 55.6165
CA -39.6564 -9.217 53.1078
CA -41.9829 -32.4905 71.9463
CA -14.4402 -34.6014 41.7843
CA -12.899 -27.3128 61.3268
CA -21.7127 -18.9447 85.7418
CA -35.6459 -28.3579 49.1016
CA -16.3584 -20.7771 37.3895
CA -27.8679 -16.7244 74.0078
CA -32.3124 -8.32428 47.089
CA -18.4627 -10.4359 60.4544
CA -17.4521 -20.6285 40.5064
CA -20.9984 1.00901 41.952
CA -53.819 -29.8373 71.0953
CA -28.4983 -22.6421 33.9427
CA -41.6395 -9.13669 52.2737
CA -20.4256 -6.48241 2.64284
CA -41.0396 -7.57312 70.3372
CA -34.2225 -23.4411 73.4936
CA -36.8866 -34.2581 39.4797
CA -20.964 -6.10077 31.4481
CA -30.3895 -21.1809 80.0053
CA -28.8409 4.43934 42.4992
CA -48.2537 -20.0814 79.305
CA -10.0509 -24.6823 48.3249
CA -6.31873 -13.7653 8.42343
CA -24.7161 -32.7215 51.68
CA -50.2393 -36.851 46.0571
CA -45.0268 -27.2658 47.232
CA -25.0724 -6.92412 44.3888
CA -25.1037 -37.3916 41.8775
CA -24.4365 -12.5519 43.6973
CA -19.842 -13.4324 44.6377
CA -28.0852 -6.53372 64.6485
CA -32.7911 -33.8207 70.8607
CA -25.9231 -36.2628 58.2249
CA -3.61097 -12.5133 48.6127
CA -20.4086 -25.4224 54.4984
CA -17.6548 -16.0684 33.93
CA -31.33 -22.3815 28.7889
CA -9.28079 -7.25974 17.837
CA -26.7763 -5.52718 69.7466
CA -39.7968 -12.0451 47.6308
CA -46.8277 -22.9699 75.568
CA -45.7503 -22.6968 55.0308
CA -24.6065 -40.9082 77.4756
CA -23.5107 -6.55998 71.5736
CA -34.49 -7.90665 54.9273
CA -21.7871 -34.8007 43.3859
CA -49.5236 -19.5736 56.7744
CA -49.7496 -5.74231 74.055
CA -33.8946 -27.6804 73.9788
CA -47.1234 -13.1229 48.3817
CA -43.0326 -1.90214 57.1933
CA -33.3092 -17.4423 35.6071
CA -23.4057 -25.6161 45.6183
CA -26.6046 -19.7149 48.7806
CA -1.02367 -26.4816 48.2341
CA -37.2021 -29.9867 31.3678
CA -32.4072 -15.4867 56.5956
CA -22.2672 -25.0306 41.1061
CA -49.5538 -13.2512 47.2379
CA -34.2058 -35.3752 56.0808
CA -7.07167 -12.6024 3.64245
CA -20.7896 -27.3044 34.7625
CA -34.0721 -30.5965 54.2739
CA -13.4833 -29.2999 43.5017
CA -47.4776 -12.9792 52.519
CA -29.4515 -18.471 81.3939
CA -50.7358 -9.02003 55.2494
CA -32.8588 -22.8915 78.2877
CA -57.9745 -14.5079 60.8101
CA -31.9537 -24.2938 72.1412
CA -25.8272 -34.915 77.7296
CA -14.567 -12.472 7.25565
CA -10.8806 -14.3453 14.4405
CA -39.7494 -20.0555 60.1719
CA -55.4824 -22.562 70.3242
CA -43.8109 -34.3795 45.4972
CA -3.6915 -15.9203 17.2707
CA -32.182 -4.34719 44.6359
CA -14.1641 -27.7206 49.924
CA -44.496 -5.2113 74.0851
CA -23.0454 -4.73575 68.7784
CA -18.9348 -10.2419 52.2449
CA -41.9606 -31.4956 53.9098
CA -46.3449 -26.4223 44.9621
CA -33.4369 -11.0399 53.507
CA -41.2653 -15.707 68.315
CA -20.3369 -20.3531 55.9021
CA -17.8151 -5.2265 70.7779
CA -24.6074 -43.4111 77.0411
CA -32.3331 -33.766 60.3608
CA -44.788 -24.4017 68.8714
CA -32.4136 -5.45848 56.5216
CA -25.0711 -38.1272 44.923
CA -26.1272 -39.9024 81.8654
CA -45.3174 -39.7918 67.2239
CA -21.5192 -29.3942 44.4915
CA -23.1735 -12.3374 60.0759
CA -12.6195 -4.83846 53.6799
CA -21.5305 2.90443 42.2459
CA -10.0052 -25.0215 57.9737
CA -34.4676 -3.27913 38.7638
CA -12.0648 -11.497 21.237
CA -46.6299 -36.4215 52.6173
CA -12.9568 -13.8878 15.1859
CA -55.9436 -20.1423 60.5063
CA -47.2635 -3.55577 74.4225
CA -32.6262 -25.5291 59.7518
CA -31.9641 -37.1749 38.8212
CA -52.8381 -32.33 64.6754
CA -29.0656 -27.9151 40.6689
CA -26.8329 -12.0775 37.7286
CA -18.2625 -10.9475 30.6631
CA -26.7397 -15.6159 32.3587
CA -24.5696 -33.2769 54.9212
CA -44.9589 -22.2443 58.1092
CA -60.4632 -16.0528 61.5504
CA -55.8365 -22.8681 56.9124
CA -27.9084 -22.5792 74.1606
CA -17.6769 -5.36822 30.3942
CA -23.4342 -14.3788 72.5502
CA -29.1094 -28.4595 77.2911
CA -44.262 -35.7694 68.4391
CA -34.6743 -34.0543 57.7861
CA -21.6859 -38.3069 46.715
CA -23.2619 -36.4304 37.7249
CA -35.9547 -27.8378 40.7156
CA -26.4619 -32.9841 39.1906
CA -8.80959 -11.4728 19.0834
CA -39.0954 -5.31096 42.7345
CA -24.7181 -32.1091 65.0575
CA -39.3229 -2.67857 41.0039
CA -27.0695 -15.5411 68.4853
CA -31.4326 -23.5433 49.7014
CA -51.7534 -1.41637 78.4142
CA -28.6123 -4.73895 64.6613
CA -9.76769 -5.32503 58.3708
CA -31.5309 -21.1598 48.7886
CA -23.6287 -38.4678 81.2323
CA -42.6276 -27.0617 33.9845
CA -11.9856 -14.6117 2.28974
CA -23.1666 -27.3719 65.6289
CA -46.601 -36.0789 65.3409
CA -8.67523 -8.51823 3.30437
CA -30.3667 -16.7365 39.5324
CA -29.8819 -25.6985 57.7973
CA -43.496 -21.0389 49.1718
CA -41.6446 -4.31503 47.2282
CA -17.1524 -19.3468 57.912
CA -7.24513 -15.8858 55.9707
CA -18.2306 -15.7542 40.0663
CA -29.6445 -1.44284 55.3779
CA -53.5663 -21.1471 44.7988
CA -28.4678 -16.9121 84.2799
CA -22.6494 -10.4224 41.1937
CA -43.9208 -38.7522 60.6963
CA -54.2649 -28.8015 65.3894
CA -25.643 -6.69689 63.0902
CA -26.5559 -32.1661 76.0831
CA -20.7777 -43.0322 43.352
CA -5.95043 -21.819 50.1418
CA -33.8704 -36.1636 57.878
CA -27.7095 -15.5748 60.0023
CA -55.8096 -15.4445 51.0022
CA -49.3004 -30.2673 59.7465
CA -13.5699 -5.13667 52.166
CA -32.4142 -12.8139 73.6921
CA -16.5619 -27.0936 66.2646
CA -23.3837 -11.8977 39.9042
CA -52.3405 -21.1861 47.2432
CA -25.574 3.84485 39.4059
CA -37.5717 -19.886 60.465
CA -6.24986 1.58772 57.0454
CA -49.7273 -28.002 41.8699
CA -13.9705 -8.82095 29.42
CA -45.95 -25.9898 52.29
CA -23.4199 -19.5785 49.6283
CA -51.956 -34.059 72.7448
CA -19.2847 1.15055 43.933
CA -37.6994 -0.0640064 41.2746
CA -15.5479 -29.8267 65.1965
CA -36.5443 -31.5787 60.7392
CA -42.4785 -6.28709 61.9907
CA -39.655 -27.41 38.342
CA -27.3383 -19.1586 78.5981
CA -24.4662 -29.4867 66.5969
CA -29.1899 -33.9944 52.7983
CA -22.1933 -8.4919 42.3778
CA -15.5969 -35.6419 44.0365
CA -52.9079 -25.4499 68.5511
CA -29.2534 -29.8506 52.4408
CA -17.7181 -6.23825 66.7697
CA -32.1098 -30.978 58.6901
CA -38.7013 -26.953 73.3658
CA -34.3638 -3.84835 48.1308
CA -27.5673 -12.4838 29.6003
CA -25.4122 -15.7978 54.8508
CA -27.9686 -23.2667 68.8172
CA -41.1745 -16.6349 56.9689
CA -51.3756 -15.6197 52.1414
CA -48.7828 -27.8495 68.9614
CA -50.808 -24.8951 48.279
CA -12.299 -17.7733 15.0027
CA -43.6873 -15.7266 59.5388
CA -22.5875 -7.76856 60.7823
CA -53.564 -21.1418 57.596
CA -18.7447 -26.3863 55.2298
CA -17.7923 -36.9382 39.8185
CA -12.6223 -17.2437 57.6052
CA -31.9928 -23.9274 47.7157
CA -33.3349 -16.6062 38.8349
CA -15.9163 -20.2743 44.208
CA -16.0732 -36.65 51.5592
CA -48.9053 -34.3318 42.9447
CA -8.17312 -24.2651 48.1877
CA -37.4806 -31.6785 29.8519
CA -39.0769 -7.79259 57.1829
CA -28.5662 6.92229 41.4343
CA -18.7383 -18.9732 90.177
CA -27.248 -31.5383 82.3792
CA -42.4703 -3.30371 65.3079
CA -23.6758 -19.5787 84.8403
CA -34.8682 -10.7953 79.3192
CA -22.0465 -2.47099 45.0356
CA -38.2277 -37.4046 59.9314
CA -16.0633 -40.198 42.0857
CA -40.5994 -6.36844 54.3746
CA -14.9352 -10.2965 55.9013
CA -19.1401 -15.975 41.7758
CA -52.4192 -12.5178 51.7374
CA -27.1077 -28.5242 55.8338
CA -25.2315 -1.36438 41.9985
CA -16.5068 -7.88544 70.4606
CA -43.8238 -31.3328 50.2638
CA -14.915 -13.8871 34.5918
CA -53.9658 -18.4988 52.4416
CA -28.8706 -25.799 55.8152
CA -12.1253 -19.2004 47.6658
CA -22.6202 -16.502 48.8137
CA -31.6253 -13.114 39.3264
CA -37.078 -24.1137 51.8005
CA -10.8577 -9.38663 3.44252
CA -31.3025 -32.3293 75.3568
CA -43.7341 -1.64076 59.2661
CA -40.9309 -41.5823 36.3067
CA -3.30335 -17.5044 55.192
CA -14.2364 -24.5729 58.6464
CA -19.5203 -5.14767 34.1329
CA -55.8348 -25.308 61.7256
CA -19.9437 -10.9528 55.502
CA -28.3989 -37.7203 76.5466
CA -20.7235 -30.9939 50.3054
CA -26.6754 3.71749 41.4323
CA -50.2047 -5.29788 77.8201
CA -28.4075 -37.0539 73.0121
CA -26.7561 -33.7991 43.891
CA -42.4815 -13.7571 61.9825
CA -19.1793 -10.3056 5.29833
CA -43.652 -28.7904 55.2138
CA -25.6316 -30.8929 54.1763
CA -10.0196 -32.8515 56.5254
CA -26.8333 -18.0368 60.2254
CA -9.84988 -16.7945 53.7523
CA -21.7177 -37.5799 33.2723
CA -38.1 -27.7962 53.9879
CA -9.389 -1.37858 55.7807
CA -27.8224 -20.9031 45.8955
CA -24.7489 -9.38002 69.5673
CA -24.1835 -12.9071 62.2015
CA -21.1138 -22.41 41.9712
CA -34.494 -11.3317 34.8724
CA -38.0964 -0.241498 45.5189
CA -35.7024 -7.73452 61.3946
CA -24.7923 -16.2731 33.7942
CA -18.2804 -9.78493 26.7726
CA -34.6101 -27.6656 67.6065
CA -34.8322 -33.2624 60.1182
CA -23.1703 -38.2193 37.2212
CA -11.5936 -9.37942 15.3528
CA -20.8981 -0.0357802 35.7251
CA -45.3171 -9.37947 52.9753
CA -42.1076 -30.8471 38.3906
CA -25.5333 -22.8659 64.0442
CA -11.5709 -32.8826 58.887
CA -40.7202 -5.28589 61.2884
CA -9.58286 -28.0002 57.8998
CA -9.08547 -25.0759 52.7064
CA -21.3813 0.0198919 49.8417
CA -19.996 -25.2253 40.8281
CA -35.1174 -17.9264 75.6989
CA -25.613 -25.3503 34.3656
CA -22.0045 -4.62002 1.91208
CA -32.9665 -18.1602 59.9652
CA -39.7434 -32.6963 41.5502
CA -40.2733 -5.62906 49.937
CA -26.1445 -37.7431 81.8276
CA -44.562 -32.2884 60.6592
CA -24.1929 -38.6792 73.161
CA -40.3877 -39.0309 42.2104
CA -4.86956 -15.1551 51.2141
CA -37.2015 -29.5385 50.598
CA -8.20512 -14.9154 54.5752
CA -12.2828 -30.9823 67.591
CA -18.88 -2.51928 66.0993
CA -34.7281 -8.33108 40.3075
CA -34.1999 -13.9846 41.8431
CA -40.1668 -29.603 58.8212
CA -43.7936 -3.44277 56.2503
CA -31.337 8.6686 40.2397
CA -26.4427 -22.0019 43.5919
CA -21.0019 -23.6963 37.2698
CA -12.7326 -12.7148 25.8265
CA -7.2633 -25.5332 53.3805
CA -42.5445 -12.9605 55.2311
CA -46.869 -33.0723 54.537
CA -31.0235 -2.04242 54.3043
CA -19.6309 -7.85989 73.4968
CA -43.0801 -1.70348 61.4232
CA -34.2664 -11.2112 69.2859
CA -30.2785 -30.2813 41.6447
CA -12.2932 -32.6491 42.1517
CA -50.6446 -31.6948 63.5399
CA -51.3448 -32.9096 46.4046
CA -48.4096 -34.6617 69.3238
CA -52.2876 -14.2033 52.8506
CA -29.7714 -5.63792 57.6819
CA -11.3189 -8.26698 1.8973
CA -32.8354 -4.02132 64.8429
CA -27.1343 -40.1703 80.0198
CA -48.8372 -23.5246 60.1249
CA -46.4387 -31.6797 56.1216
CA -6.38825 -9.14502 4.49902
CA -52.5085 -26.9697 47.4676
CA -30.8471 -30.3961 33.0494
CA -45.5381 -32.9974 66.3685
CA -33.2604 -7.27668 56.3178
