489

CA -47.2817 -30.1315 67.7607
CA -29.8978 -22.0226 78.0246
CA -37.7247 -36.5281 38.1421
CA -48.9391 -23.5534 46.0161
CA -20.2454 -16.1819 46.0567
CA -25.728 -6.79743 72.8227
CA -28.8419 -13.301 33.2079
CA -52.423 -26.546 62.0802
CA -30.0518 -25.6236 34.4295
CA -33.7865 -10.7641 58.2749
CA -35.3548 -12.3652 76.4797
CA -17.1674 -14.3234 55.0467
CA -38.9867 -6.18294 35.6347
CA -28.7694 -12.7002 68.9304
CA -38.5417 -21.5811 61.5739
CA -51.6199 -22.8535 41.6157
CA -20.0249 -35.645 48.1209
CA -52.9728 -21.2301 75.3791
CA -21.8798 -4.06378 61.8778
CA -37.9169 -12.827 38.0306
CA -27.4553 -21.6029 38.7423
CA -28.3013 -22.0286 44.3999
CA -40.3658 -5.1243 74.5622
CA -30.6972 -4.63873 43.1759
CA -32.6926 -8.64326 75.6158
CA -36.2996 -12.8861 54.7903
CA -51.7862 -23.5817 59.5473
CA -23.3854 -23.5094 35.2014
CA -20.4001 -17.8587 33.8793
CA -40.881 -7.22902 40.7562
CA -30.5341 -21.9787 59.001
CA -31.922 -37.6737 79.735
CA -31.0589 -30.5981 74.6699
CA -35.1342 -24.9888 46.6731
CA -30.7853 -17.9021 50.5556
CA -13.9969 -17.0805 56.6512
CA -34.0739 -28.6111 36.3533
CA -30.8272 -7.26682 71.0582
CA -26.8982 -4.73331 65.4961
CA -4.92099 -25.9074 46.8028
CA -25.7098 -16.0729 57.7999
CA -23.0389 -36.6903 49.3289
CA -16.719 -16.2188 43.8964
CA -48.5235 -11.3654 67.648
CA -44.1269 -24.7204 74.3325
CA -22.9487 -3.35512 58.2993
CA -24.2137 -29.6919 68.6019
CA -52.2884 -25.1743 51.3255
CA -28.309 -29.7499 43.1521
CA -18.8253 -4.40903 37.3018
CA -42.0546 -37.8134 57.7674
CA -8.09504 -12.622 58.7827
CA -41.6433 -12.2556 34.0925
CA -34.0716 -36.804 61.7627
CA -31.0321 -36.0678 63.6653
CA -50.7284 -19.6762 55.7096
CA -25.1603 -3.94752 63.2939
CA -34.3262 -20.2828 36.73
CA -47.6896 -31.2717 62.1508
CA -25.2621 0.494381 42.895
CA -39.3087 -6.02556 51.5183
CA -20.4825 -30.395 63.7715
CA -42.8819 -43.0941 41.0433
CA -10.9905 -28.9578 47.0823
CA -23.1845 -32.513 78.4276
CA -21.2225 -33.3038 39.9073
CA -13.6583 -8.8675 12.026
CA -37.6032 -15.5345 76.5065
CA -53.9455 -24.7392 64.9155
CA -5.92338 -24.4166 60.909
CA -36.244 -24.3036 48.1674
CA -26.6429 -13.114 61.2594
CA -34.9209 -20.2249 62.0542
CA -20.464 -33.8928 55.3086
CA -31.4658 -9.25672 83.2936
CA -40.4562 -26.7294 40.0579
CA -29.8791 -11.0707 77.4685
CA -37.428 -31.3196 59.225
CA -49.4353 -13.6982 60.8518
CA -8.99398 -16.2417 17.3137
CA -9.81547 -27.391 53.3819
CA -42.0965 -30.2149 58.1276
CA -40.9765 -8.94884 44.8773
CA -18.344 -14.0933 56.3957
CA -36.9149 -11.6095 86.3139
CA -11.5088 -9.03293 6.89786
CA -37.8379 -17.4179 42.2463
CA -34.5716 -26.6314 73.9877
CA -24.7713 -30.5215 52.9931
CA -32.4361 -35.6983 56.9969
CA -50.2925 -25.339 46.8783
CA -32.7374 -16.4335 35.8343
CA -26.4097 -28.685 60.6875
CA -42.7342 -30.1445 60.6121
CA -46.6392 -33.6112 67.8351
CA -7.11237 -26.235 61.6741
CA -25.1956 -23.6066 84.2849
CA -23.2775 -29.6332 65.0583
CA -30.1797 -34.1392 43.6525
CA -34.3155 -5.79838 53.7661
CA -19.6767 -9.47501 46.217
CA -20.6601 -0.266659 43.9567
CA -38.1141 -4.2561 49.1325
CA -50.2137 -10.4623 56.379
CA -42.4089 -12.0345 75.542
CA -15.3668 -8.39574 51.7301
CA -13.1237 -11.3746 46.5467
CA -21.3141 -0.843831 70.8627
CA -19.2165 -22.8175 38.6548
CA -39.5315 -24.3502 50.9544
CA -51.3284 -10.1792 58.0275
CA -41.5918 -35.1213 44.1596
CA -9.29563 -10.088 15.6689
CA -18.4177 -1.91343 39.1696
CA -30.2134 -37.1797 61.486
CA -28.7807 -40.7701 85.6636
CA -29.2674 -24.1639 25.2509
CA -4.8896 -9.60839 10.3751
CA -52.5257 -31.9631 59.5737
CA -17.7166 -1.70177 45.1214
CA -27.0765 -24.7032 67.6266
CA -14.5323 -12.9343 59.4352
CA -22.8446 -25.8447 35.2183
CA -32.1649 -14.0861 64.4604
CA -22.8584 -36.3427 74.3483
CA -42.9726 -8.79632 69.0638
CA -38.8672 -22.0683 50.4922
CA -50.8012 -27.066 55.1704
CA -23.4675 -16.7317 68.7324
CA -25.8376 -22.5869 56.4484
CA -35.0506 -24.7119 50.4202
CA -21.5698 -28.7202 49.8154
CA -28.5823 -13.5018 55.0138
CA -29.8808 -21.8751 76.0155
CA -18.4945 -35.0003 44.4751
CA -8.03003 -1.34547 57.5132
CA -34.5431 -36.8809 51.0561
CA -18.7451 -20.7191 36.7092
CA -31.763 -32.6327 46.8333
CA -32.8214 -22.7984 36.8487
CA -13.8654 -21.0491 56.6922
CA -11.8534 -17.6358 48.5985
CA -47.9745 -24.7816 47.6778
CA -36.0358 -17.6068 37.8713
CA -20.322 -6.32966 35.449
CA -24.64 -35.6916 40.586
CA -23.6294 -15.5799 57.1559
CA -32.82 -14.8718 52.3421
CA -28.7136 -23.9505 80.7942
CA -32.115 -16.2087 54.2486
CA -34.2088 -31.1746 43.8694
CA -38.8967 -22.5061 55.6165
CA -27.0977 -2.43086 41.265
CA -30.2195 -34.7583 57.4057
CA -5.48811 -24.3826 43.2294
CA -10.6444 -9.80374 8.46203
CA -21.7127 -18.9447 85.7418
CA -35.6459 -28.3579 49.1016
CA -35.6554 -20.4341 65.2533
CA -27.8679 -16.7244 74.0078
CA -32.3124 -8.32428 47.089
CA -18.702 -21.1709 46.017
CA -17.1284 -0.81432 43.0324
CA -37.6142 -42.4977 51.9343
CA -44.2706 -14.167 31.3536
CA -33.591 -36.535 58.5589
CA -41.6395 -9.13669 52.2737
CA -32.0781 -8.95846 62.9229
CA -41.0396 -7.57312 70.3372
CA -35.9259 -7.36331 68.2011
CA -24.3868 -21.5523 34.3167
CA -20.964 -6.10077 31.4481
CA -37.0044 -8.54216 58.0574
CA -48.6391 -13.5225 52.7074
CA -29.8161 -18.4407 79.1825
CA -10.0509 -24.6823 48.3249
CA -6.31873 -13.7653 8.42343
CA -19.7224 -3.86659 57.5601
CA -50.2393 -36.851 46.0571
CA -21.1295 -5.58425 51.1852
CA -48.0505 -21.3014 74.9452
CA -35.4445 -1.64989 66.3846
CA -59.1716 -26.7599 45.6169
CA -34.3787 -31.5611 71.9572
CA -31.3512 -4.4971 62.2348
CA -38.1599 -13.8982 77.2052
CA -53.8247 -27.8958 69.0595
CA -12.0232 -3.62192 58.7488
CA -38.1102 -16.0675 64.4774
CA -20.6262 -31.6811 66.8595
CA -31.33 -22.3815 28.7889
CA -9.28079 -7.25974 17.837
CA -33.5746 -3.31999 36.7988
CA -39.7968 -12.0451 47.6308
CA -43.1917 -6.42761 74.4059
CA -9.57558 -24.0397 61.0591
CA -42.0159 -9.44609 47.5307
CA -23.5107 -6.55998 71.5736
CA -42.0521 -39.4732 43.8617
CA -21.2247 -33.9704 42.9112
CA -47.5613 -22.605 63.2719
CA -4.27289 -12.571 60.4576
CA -38.526 -38.0619 40.2253
CA -21.0681 -35.7458 54.7449
CA -29.9858 -30.8508 45.0591
CA -42.7953 -19.3774 71.4956
CA -20.7138 -3.86169 36.2311
CA -24.1197 -10.1347 51.5181
CA -14.0169 -24.2441 61.8638
CA -41.0638 -19.9237 39.3871
CA -28.7847 -2.87277 64.7591
CA -5.19249 -16.2225 52.6213
CA -19.9739 -8.79176 41.9729
CA -34.2058 -35.3752 56.0808
CA -7.07167 -12.6024 3.64245
CA -44.6432 -25.5122 43.4898
CA -12.1825 -13.5377 56.7211
CA -15.7336 -8.36322 27.4787
CA -49.6794 -16.4769 49.046
CA -32.306 -5.65271 38.6599
CA -51.9919 -6.18748 55.581
CA -32.8588 -22.8915 78.2877
CA -21.31 -6.84699 60.9839
CA -32.0545 -24.8241 74.7649
CA -51.4161 -30.4084 47.461
CA -14.567 -12.472 7.25565
CA -37.7636 -23.9404 36.3163
CA -21.7115 -8.97294 50.5362
CA -36.1185 -29.684 37.9512
CA -45.4583 -18.8837 55.7313
CA -3.6915 -15.9203 17.2707
CA -14.3056 -18.7832 53.3438
CA -42.5453 -36.0982 39.0305
CA -44.496 -5.2113 74.0851
CA -23.8138 -32.7753 50.0473
CA -26.521 -5.09981 62.5184
CA -54.6266 -23.2405 45.0935
CA -51.6023 -16.5787 57.5537
CA -24.7682 -2.57814 37.0107
CA -27.3423 -22.0969 26.5475
CA -20.6442 -27.7489 65.0632
CA -43.8053 -13.5902 71.9976
CA -26.9102 -31.4633 31.6647
CA -32.6053 -42.1884 87.9907
CA -26.9097 -29.6638 30.9042
CA -49.5493 -18.3945 75.5684
CA -34.4756 -27.1113 37.4701
CA -34.397 -25.4906 33.6976
CA -32.1062 -21.0936 47.1047
CA -21.5192 -29.3942 44.4915
CA -23.1735 -12.3374 60.0759
CA -12.6195 -4.83846 53.6799
CA -21.5305 2.90443 42.2459
CA -10.0052 -25.0215 57.9737
CA -34.4676 -3.27913 38.7638
CA -12.0648 -11.497 21.237
CA -36.7205 -25.3421 41.6112
CA -12.9568 -13.8878 15.1859
CA -29.8186 -28.9094 62.095
CA -21.771 -32.3687 35.8245
CA -32.0511 -19.2998 81.0265
CA -41.7414 -24.329 63.1803
CA -25.2639 -17.3135 47.0196
CA -24.8777 -28.0735 53.7634
CA -26.8329 -12.0775 37.7286
CA -33.9855 -4.20423 57.4216
CA -39.4329 -18.0138 57.4588
CA -46.6505 -14.3333 50.4663
CA -46.6595 -9.05626 55.1715
CA -49.5282 -24.0616 56.8177
CA -36.6108 -39.4569 37.5557
CA -50.7097 -24.0105 61.5297
CA -17.6769 -5.36822 30.3942
CA -34.5167 -6.97359 35.8348
CA -13.7713 0.0075727 55.7222
CA -44.262 -35.7694 68.4391
CA -28.4229 -17.7258 46.4212
CA -24.7954 -14.6348 45.2947
CA -14.6657 -1.22286 47.988
CA -21.0801 -29.3111 56.0302
CA -42.2475 -19.7558 60.643
CA -8.80959 -11.4728 19.0834
CA -39.1595 -39.0768 49.9647
CA -20.3505 -13.0154 51.6188
CA -37.6787 -34.8516 44.6519
CA -32.6851 -2.80014 58.8766
CA -26.006 -24.4196 42.4293
CA -51.7534 -1.41637 78.4142
CA -22.3761 -27.6883 56.1382
CA -40.6585 -37.5023 38.2752
CA -49.5153 -27.4652 66.191
CA -22.5153 -3.3628 55.6013
CA -19.3556 -4.65509 69.7304
CA -41.7654 -9.61542 42.9974
CA -30.2771 -14.2632 37.0301
CA -8.46166 -27.8545 52.1562
CA -8.67523 -8.51823 3.30437
CA -43.3769 -25.9765 75.6682
CA -37.4507 -34.5591 34.912
CA -16.1375 -24.5151 61.3034
CA -26.1782 -33.9488 63.251
CA -17.1524 -19.3468 57.912
CA -23.619 -13.3596 52.5101
CA -18.2306 -15.7542 40.0663
CA -25.8963 -14.8006 69.8449
CA -21.9386 -2.53069 76.3413
CA -28.4678 -16.9121 84.2799
CA -22.6494 -10.4224 41.1937
CA -15.7015 -20.1808 59.0054
CA -23.8698 -40.6865 77.2045
CA -25.4342 -37.5551 73.8287
CA -18.2148 -37.5014 45.3193
CA -28.5461 -21.5836 71.8863
CA -47.0048 -4.73483 78.1963
CA -4.30678 -22.7233 47.1336
CA -35.806 -18.7125 40.1258
CA -45.8389 -11.6171 65.7417
CA -7.95161 -22.565 60.5402
CA -51.1924 -33.8206 56.521
CA -12.4836 -0.522492 53.6996
CA -36.2217 -8.65087 44.9686
CA -38.4851 -33.4657 60.7276
CA -26.1689 -31.0213 41.5043
CA -18.9922 -24.4297 41.7182
CA -4.05873 -7.78309 56.9854
CA -46.0019 -7.87275 36.6219
CA -14.0564 -31.5266 47.7885
CA -56.1589 -25.0811 49.365
CA -33.3938 -6.65369 74.6314
CA -23.4199 -19.5785 49.6283
CA -47.1677 -10.939 54.8116
CA -44.6627 -15.6125 57.4372
CA -21.7921 -38.711 74.3699
CA -15.5479 -29.8267 65.1965
CA -20.8043 -5.79659 53.4107
CA -42.4785 -6.28709 61.9907
CA -17.9915 -20.8801 39.5215
CA -51.9813 -35.6707 61.9685
CA -33.0224 -15.7708 79.0674
CA -29.1899 -33.9944 52.7983
CA -16.8271 -24.4787 58.3368
CA -15.9774 -9.48607 69.8675
CA -58.7853 -26.8294 48.8102
CA -38.3749 -9.17231 51.7888
CA -17.7181 -6.23825 66.7697
CA -13.298 -30.932 58.3352
CA -28.9189 -24.5602 42.7295
CA -44.0859 -10.6782 36.6796
CA -30.6017 -7.40402 55.294
CA -27.8092 -36.6567 66.8753
CA -0.634585 -10.6087 60.4485
CA -10.3556 -6.42416 57.9179
CA -36.1895 -17.5278 67.152
CA -39.0838 -15.3409 33.1265
CA -37.2694 -10.2439 46.4549
CA -12.299 -17.7733 15.0027
CA -31.9698 -18.0654 51.9208
CA -28.2154 -25.9588 58.5222
CA -33.8046 -5.37195 69.2889
CA -34.7914 -11.8811 78.3011
CA -16.7231 -6.86739 33.1478
CA -53.7939 -17.4378 61.3971
CA -46.0344 -24.9066 79.1521
CA -8.35718 -22.1186 49.9504
CA -17.5532 -16.4927 37.5086
CA -43.5311 -30.9992 72.7371
CA -55.6222 -27.5603 43.1877
CA -45.7372 -7.78032 69.7691
CA -34.7056 -21.3128 29.837
CA -7.58259 -1.04925 60.3684
CA -34.2675 -31.5848 51.67
CA -18.7383 -18.9732 90.177
CA -30.1693 2.57643 42.1092
CA -27.881 -26.099 61.5669
CA -23.6758 -19.5787 84.8403
CA -37.6078 -28.6657 45.188
CA -15.4719 -19.0905 46.2723
CA -25.3823 -2.32403 46.7483
CA -16.0633 -40.198 42.0857
CA -25.622 -0.25111 65.8146
CA -14.5797 -26.7921 54.1711
CA -19.1401 -15.975 41.7758
CA -17.9141 -19.137 37.0687
CA -32.9954 -12.1731 37.7835
CA -19.2605 -0.772828 46.0123
CA -5.20566 -10.6677 60.4809
CA -6.0325 -0.434431 58.7071
CA -49.9348 -25.5158 72.8046
CA -53.9658 -18.4988 52.4416
CA -8.62542 -15.3313 58.8157
CA -26.1308 -19.7508 66.2962
CA -27.7537 -15.6999 33.0344
CA -31.4117 -5.27859 34.4726
CA -21.0424 -5.52916 55.3672
CA -10.8577 -9.38663 3.44252
CA -16.9946 1.70755 42.9395
CA -25.688 -25.6253 56.8939
CA -39.9537 -26.6408 47.4035
CA -20.1571 -27.6245 67.6172
CA -25.6093 -32.0997 73.4931
CA -19.5203 -5.14767 34.1329
CA -46.2292 -32.9063 73.0712
CA -19.9437 -10.9528 55.502
CA -28.3989 -37.7203 76.5466
CA -40.8156 -17.6478 55.4678
CA -20.8212 -28.6777 39.1714
CA -14.2954 -8.45636 31.3722
CA -40.4943 -4.03077 58.1658
CA -54.814 -25.5632 44.1995
CA -42.4815 -13.7571 61.9825
CA -19.1793 -10.3056 5.29833
CA -43.652 -28.7904 55.2138
CA -16.5862 -21.6468 47.121
CA -13.7367 -2.86193 58.6098
CA -26.8333 -18.0368 60.2254
CA -9.84988 -16.7945 53.7523
CA -30.6561 -4.49632 58.0074
CA -38.1 -27.7962 53.9879
CA -9.389 -1.37858 55.7807
CA -13.6914 -12.4022 56.582
CA -25.5656 -28.2568 35.228
CA -52.4102 -31.4816 62.4848
CA -50.0008 -11.7743 51.6653
CA -26.464 -18.9761 45.2045
CA -36.0872 -26.508 72.245
CA -36.9961 -38.8136 55.1361
CA -21.0949 -34.169 37.2993
CA -33.9047 -10.3956 87.5388
CA -45.9352 -38.5479 42.221
CA -19.2399 -40.7698 44.9335
CA -23.1703 -38.2193 37.2212
CA -11.5936 -9.37942 15.3528
CA -23.7354 -10.7388 37.2725
CA -36.3201 -31.3455 57.1864
CA -13.3912 -7.81695 6.98136
CA -24.0368 -0.714509 67.2266
CA -6.44663 -2.81476 54.1877
CA -13.79 -33.8804 43.0005
CA -9.58286 -28.0002 57.8998
CA -47.0764 -40.4162 46.289
CA -28.7423 -24.3207 75.4848
CA -34.3159 -4.99349 33.5222
CA -39.2513 -15.6901 73.4802
CA -31.7915 -13.1084 46.3994
CA -31.6757 -40.2348 78.1316
CA -17.4776 -13.5111 31.8812
CA -39.7434 -32.6963 41.5502
CA -40.2733 -5.62906 49.937
CA -26.1445 -37.7431 81.8276
CA -8.58715 -5.5285 59.8382
CA -36.809 -17.2283 63.6965
CA -29.9291 -2.0423 40.2015
CA -29.3522 -38.1968 55.5944
CA -16.8254 -14.2839 45.972
CA -53.4252 -22.0312 57.3867
CA -8.85742 -18.627 53.1295
CA -41.7835 -13.0742 71.2978
CA -40.3513 -2.16742 48.944
CA -35.5996 -7.46861 70.6285
CA -36.4961 -12.2584 43.5874
CA -44.8452 -8.22414 72.9504
CA -45.879 -20.6788 81.706
CA -26.4427 -22.0019 43.5919
CA -42.2076 -39.8756 41.6904
CA -12.7326 -12.7148 25.8265
CA -24.2475 -18.3811 83.4064
CA -42.5445 -12.9605 55.2311
CA -13.9736 -15.4018 28.7387
CA -19.9422 -27.1817 53.5005
CA -22.7162 -34.202 32.0729
CA -32.8785 -13.811 62.5242
CA -35.4089 -10.9888 79.8563
CA -51.8735 -19.8058 58.7703
CA -47.7852 -8.06668 62.4651
CA -43.3274 -33.063 59.0727
CA -55.4445 -29.6405 47.6467
CA -5.08302 -12.8327 3.35226
CA -50.0229 -28.7041 68.0403
CA -31.0299 -9.58328 43.123
CA -11.3189 -8.26698 1.8973
CA -22.8211 -14.5703 31.4259
CA -27.1343 -40.1703 80.0198
CA -31.6123 7.73935 44.3736
CA -46.4387 -31.6797 56.1216
CA -6.38825 -9.14502 4.49902
CA -29.6855 4.143 44.4109
CA -22.1081 -6.87078 4.91159
CA -24.8589 -15.9087 40.8294
CA -41.352 -5.32606 63.3099
