489

CA -51.6934 -8.76417 52.5074
CA -17.3763 0.912021 51.9063
CA -47.8045 -21.0175 60.3438
CA -19.5164 -16.4122 52.9029
CA -52.2417 -21.3724 59.3593
CA -12.4884 -19.2897 42.0397
CA -28.8419 -13.301 33.2079
CA -30.5256 -11.0217 65.0986
CA -30.0518 -25.6236 34.4295
CA -56.6471 -28.8401 43.9699
CA -19.4314 -34.5995 48.0763
CA -20.4497 -21.953 61.6602
CA -20.5774 -2.72203 29.0513
CA -7.9853 -22.4113 47.8351
CA -34.288 -33.1549 46.3916
CA -51.6199 -22.8535 41.6157
CA -32.4782 -12.036 72.0431
CA -52.9728 -21.2301 75.3791
CA -27.7296 -19.6819 60.2979
CA -24.8108 -35.3909 43.7037
CA -8.809 -12.084 17.3388
CA -28.8335 -12.4549 65.6993
CA -22.3309 -6.9215 36.2516
CA -34.1459 -30.6345 75.4908
CA -19.7577 -1.48798 55.8218
CA -36.2996 -12.8861 54.7903
CA -29.3922 -28.2637 33.1484
CA -33.2685 -7.16351 34.9423
CA -15.8809 -13.9455 45.6074
CA -8.1284 -16.5099 45.9109
CA -46.3148 -30.2813 37.47
CA -21.6804 -29.6662 57.0626
CA -31.0589 -30.5981 74.6699
CA -35.1342 -24.9888 46.6731
CA -30.7853 -17.9021 50.5556
CA -48.9922 -14.5989 63.5782
CA -47.9308 -24.5161 54.095
CA -36.7381 -38.4788 45.0548
CA -26.8982 -4.73331 65.4961
CA -34.6421 -11.7136 36.8983
CA -44.4956 -17.1283 47.056
CA -30.9539 -33.4011 54.9742
CA -29.1382 -16.8883 56.232
CA -49.6874 -30.822 68.3389
CA -51.2572 -24.0177 62.3261
CA -44.0904 -9.38276 47.1793
CA -18.5978 -2.89737 55.7372
CA -44.7005 -16.9954 41.9853
CA -14.7203 -16.5875 54.3435
CA -42.6539 0.219716 61.9569
CA -42.0546 -37.8134 57.7674
CA -8.09504 -12.622 58.7827
CA -40.4812 -2.73859 61.7139
CA -49.7422 -12.1465 72.523
CA -32.6504 -18.4706 45.8534
CA -53.6392 -22.1994 51.0394
CA -26.6146 -4.61167 6.75137
CA -32.3599 -34.4211 54.3189
CA -35.9154 -7.10138 56.6451
CA -33.6777 -5.10804 51.1268
CA -36.0617 -0.765707 41.4551
CA -21.6306 -34.5353 35.8209
CA -20.0984 -24.256 63.9578
CA -29.0978 -30.5337 52.3536
CA -32.7884 -38.5521 46.0729
CA -21.2225 -33.3038 39.9073
CA -13.6583 -8.8675 12.026
CA -39.7812 -4.36395 68.9711
CA -45.5452 -27.2687 40.4246
CA -31.0441 -34.7515 79.4844
CA -37.1404 -21.2719 40.27
CA -18.2656 -8.65839 54.4287
CA -25.9541 -13.1965 68.1943
CA -39.7765 -16.0153 55.9589
CA -19.0339 -16.9291 34.5005
CA -41.6088 -20.9463 35.0244
CA -39.511 -22.6901 66.4424
CA -37.428 -31.3196 59.225
CA -10.8191 -13.7546 48.9371
CA -8.99398 -16.2417 17.3137
CA -17.621 3.91165 61.4559
CA -42.0965 -30.2149 58.1276
CA -50.5804 -23.6909 75.7822
CA -18.344 -14.0933 56.3957
CA -39.2297 -34.0137 37.8783
CA -22.6956 -5.26043 5.94335
CA -15.1816 -35.4716 45.6148
CA -34.3706 -25.583 38.3674
CA -24.7713 -30.5215 52.9931
CA -39.0675 -19.9245 50.4368
CA -50.2925 -25.339 46.8783
CA -14.8059 -23.578 46.1213
CA -23.2462 -31.8951 33.3594
CA -42.7342 -30.1445 60.6121
CA -33.702 -4.50423 64.5494
CA -21.1498 -24.3789 40.5629
CA -25.1956 -23.6066 84.2849
CA -23.2775 -29.6332 65.0583
CA -22.7649 -4.1675 32.7524
CA -53.0653 -7.55294 55.6487
CA -19.6767 -9.47501 46.217
CA -4.63246 -13.3934 47.4006
CA -23.4193 -17.406 47.1177
CA -50.2137 -10.4623 56.379
CA -30.5938 -26.0197 30.0116
CA -12.1744 -15.7608 54.9395
CA -47.87 -23.0687 64.9872
CA -34.3007 -8.02668 60.5147
CA -31.5833 -2.66487 34.9425
CA -42.9018 -12.3959 64.628
CA -29.7194 -27.2242 72.8402
CA -38.3755 -3.43498 64.826
CA -9.29563 -10.088 15.6689
CA -53.0192 -14.6881 62.7207
CA -22.5166 -19.579 60.772
CA -28.7807 -40.7701 85.6636
CA -47.16 -35.4058 76.8678
CA -4.8896 -9.60839 10.3751
CA -47.7123 -13.1109 75.0107
CA -33.6509 -39.9527 49.3387
CA -27.0765 -24.7032 67.6266
CA -14.5323 -12.9343 59.4352
CA -30.7249 -30.0303 34.8788
CA -24.6979 -16.0442 31.7895
CA -52.3195 -6.12836 61.3842
CA -26.5209 -22.4117 58.4071
CA -28.1885 -13.3658 68.6907
CA -31.4765 -24.1859 38.757
CA -41.8934 -29.5267 70.4414
CA -35.3086 -6.78753 59.199
CA -25.6928 -16.6636 28.4141
CA -25.571 -9.61459 36.9151
CA -16.0265 -19.5664 64.6528
CA -29.8808 -21.8751 76.0155
CA -39.7372 -23.734 73.2012
CA -16.7294 -7.97624 48.6629
CA -34.5431 -36.8809 51.0561
CA -24.0558 -34.8843 47.9947
CA -25.357 -41.0406 79.7245
CA -29.7748 -2.14835 47.5638
CA -49.4211 -34.0251 57.3998
CA -31.8185 -33.0043 74.0884
CA -35.2182 -24.2127 51.9112
CA -36.0358 -17.6068 37.8713
CA -35.8057 -5.31483 46.8267
CA -39.6616 -8.821 45.9522
CA -23.6294 -15.5799 57.1559
CA -32.82 -14.8718 52.3421
CA -31.5894 -17.0745 70.5448
CA -47.3401 -28.4563 33.8312
CA -9.28647 -10.7809 62.2875
CA -38.8967 -22.5061 55.6165
CA -35.6296 -7.18181 38.0579
CA -43.442 -21.2956 35.9616
CA -40.1557 -9.43605 53.7558
CA -4.15904 -6.11772 9.01034
CA -21.7127 -18.9447 85.7418
CA -28.1586 -2.65351 67.123
CA -16.7861 1.674 62.9724
CA -12.6243 0.0320396 59.6693
CA -8.28317 -13.1169 3.19405
CA -23.4426 -2.75301 53.8897
CA -53.4156 -11.426 61.2962
CA -28.1193 -27.3581 30.3773
CA -32.6922 -27.7073 50.0218
CA -23.3473 0.975487 42.0818
CA -29.2991 -8.18469 36.12
CA -35.4703 -15.7963 38.0803
CA -41.0396 -7.57312 70.3372
CA -35.9259 -7.36331 68.2011
CA -20.7652 -34.1321 38.2035
CA -20.964 -6.10077 31.4481
CA -17.1753 -30.0188 48.7714
CA -44.728 -8.13846 52.5385
CA -29.8161 -18.4407 79.1825
CA -37.2993 -14.813 33.0435
CA -6.31873 -13.7653 8.42343
CA -35.2984 -2.10202 38.3251
CA -27.0329 -21.6135 81.2358
CA -19.7139 -36.1601 35.7441
CA -48.0505 -21.3014 74.9452
CA -39.8141 -6.66433 45.5293
CA -59.1716 -26.7599 45.6169
CA -40.7813 -13.0629 36.1677
CA -28.3322 -23.2945 44.4032
CA -38.1599 -13.8982 77.2052
CA -32.3777 -8.3728 60.7574
CA -12.0232 -3.62192 58.7488
CA -10.6279 -22.5032 55.0228
CA -20.6262 -31.6811 66.8595
CA -40.6163 -11.2484 73.1551
CA -9.28079 -7.25974 17.837
CA -44.6619 -24.3141 73.575
CA -39.7968 -12.0451 47.6308
CA -23.4395 -24.5792 81.7743
CA -21.8978 -3.9486 34.4687
CA -42.9317 -13.177 53.4354
CA -45.2779 -29.1374 75.233
CA -42.0521 -39.4732 43.8617
CA -20.0537 -15.7392 47.9388
CA -54.5574 -25.2371 64.4475
CA -9.34834 -4.49724 60.6047
CA -38.526 -38.0619 40.2253
CA -39.4656 -21.8708 64.2467
CA -28.8923 -19.7042 76.5725
CA -21.6548 -1.81833 65.4114
CA -37.022 -4.89062 39.5308
CA -37.3002 -26.3009 44.5976
CA -49.9217 -17.7963 54.9312
CA -18.5485 -5.40818 51.0047
CA -25.3891 2.1276 47.4531
CA -11.8744 -18.5157 44.9862
CA -2.16815 -14.5371 49.0541
CA -17.047 -22.2932 58.5736
CA -24.4942 4.37759 43.3981
CA -19.779 -11.2307 30.0492
CA -13.4451 -26.0834 51.2384
CA -15.7336 -8.36322 27.4787
CA -49.6794 -16.4769 49.046
CA -12.5477 -23.1552 48.9959
CA -37.3101 -15.2168 73.5008
CA -32.8588 -22.8915 78.2877
CA -21.31 -6.84699 60.9839
CA -15.8852 -30.3795 50.9646
CA -55.0202 -32.6417 60.6083
CA -14.567 -12.472 7.25565
CA -32.2802 -39.3075 54.5327
CA -25.5758 -6.3749 58.9319
CA -14.4691 -18.2242 45.6189
CA -39.1725 -15.5384 34.5492
CA -3.6915 -15.9203 17.2707
CA -42.4778 -22.1686 46.0561
CA -53.5255 -23.3747 47.8974
CA -29.2758 -22.8024 37.2179
CA -43.9565 -15.8344 37.1194
CA -34.8652 -26.2704 40.5508
CA -32.0158 -23.1637 82.1696
CA -51.6023 -16.5787 57.5537
CA -25.1598 -29.0157 43.7212
CA -25.8763 -41.0733 82.2672
CA -21.7179 -8.79547 40.7228
CA -43.8053 -13.5902 71.9976
CA -26.9102 -31.4633 31.6647
CA -32.6053 -42.1884 87.9907
CA -35.3583 -3.95783 66.2056
CA -34.843 -29.6951 78.2154
CA -34.2073 -26.4686 74.7305
CA -29.2055 -20.9027 61.67
CA -25.6787 -30.6037 55.3079
CA -42.5863 -32.2113 58.0939
CA -22.6839 -28.0182 38.8821
CA -25.9397 -2.37217 43.446
CA -25.0555 -39.4471 83.567
CA -18.1163 -8.30875 51.2971
CA -43.1883 -34.6238 35.9589
CA -12.1322 -13.3121 22.7715
CA -36.7205 -25.3421 41.6112
CA -12.9568 -13.8878 15.1859
CA -26.5329 -11.6943 72.9211
CA -18.5264 -16.4424 43.5878
CA -32.0511 -19.2998 81.0265
CA -28.7653 -25.9356 38.0906
CA -40.9514 -11.0031 44.4281
CA -47.0995 -23.0931 38.1061
CA -12.7042 -16.3472 59.0436
CA -37.5428 -21.0773 70.6444
CA -35.3213 -12.9942 84.5609
CA -14.3161 -6.00359 4.71839
CA -46.6595 -9.05626 55.1715
CA -28.501 -42.5933 80.5492
CA -33.9352 -26.9677 54.9395
CA -21.5236 -28.7685 66.9552
CA -15.6054 3.6211 67.4794
CA -30.3947 -23.5299 71.0539
CA -50.7507 -15.0071 66.6415
CA -28.9383 -16.9285 72.3072
CA -50.4982 -30.7268 71.0362
CA -46.3393 -23.9842 40.7187
CA -22.4596 -25.9015 51.9936
CA -10.233 -5.35461 62.3751
CA -23.866 -25.9203 68.1207
CA -8.80959 -11.4728 19.0834
CA -22.3946 -23.2901 67.0275
CA -54.9887 -11.7022 46.9265
CA -40.3186 -23.2999 53.1406
CA -42.6176 -19.7051 73.4109
CA -26.006 -24.4196 42.4293
CA -18.4869 -1.36643 65.0758
CA -44.8935 -36.6303 31.8618
CA -40.6585 -37.5023 38.2752
CA -49.5153 -27.4652 66.191
CA -37.9323 -7.92241 61.9031
CA -44.5086 -36.7547 35.3109
CA -48.3385 -24.1259 66.5742
CA -26.2553 0.30864 40.5874
CA -15.9599 -22.0901 62.6144
CA -18.9476 -7.00785 48.7086
CA -51.3553 -13.5223 62.5254
CA -35.7338 -35.0939 41.2529
CA -29.8313 5.94943 44.181
CA -26.1782 -33.9488 63.251
CA -25.1166 -25.7681 52.8214
CA -36.6207 -29.0062 46.4995
CA -31.3213 -17.7448 36.5124
CA -55.1525 -27.141 59.9658
CA -9.68479 -8.30258 64.9069
CA -32.212 -41.7498 81.5263
CA -22.6494 -10.4224 41.1937
CA -15.2727 -24.2675 62.9105
CA -3.98873 -23.5189 48.6949
CA -39.4586 -8.73387 44.097
CA -29.7847 -36.0499 78.818
CA -9.401 -10.2956 60.2293
CA -15.6658 -16.9289 22.4391
CA -44.4167 -23.6701 64.561
CA -29.1922 -11.0616 60.8342
CA -53.4767 -15.0658 66.6616
CA -48.8828 -26.1602 41.4052
CA -18.3225 -12.0829 61.0011
CA -23.9634 -12.3062 41.0351
CA -21.5757 -26.0651 63.2352
CA -56.3341 -22.4228 45.4016
CA -20.3652 -1.56372 36.7486
CA -17.3987 -31.7403 35.9879
CA -34.1004 -5.70462 45.7074
CA -23.7955 3.73288 41.711
CA -38.4155 -37.4758 46.3583
CA -14.1012 -12.747 43.3862
CA -23.7596 1.7848 46.6623
CA -45.5352 -35.3186 37.806
CA -22.6363 -23.8303 70.9271
CA -44.6627 -15.6125 57.4372
CA -57.4364 -16.0294 59.4886
CA -35.6834 -13.48 79.3676
CA -20.8043 -5.79659 53.4107
CA -29.9904 -34.9493 76.3445
CA -22.9375 -16.6004 53.688
CA -51.9813 -35.6707 61.9685
CA -33.0224 -15.7708 79.0674
CA -12.4533 -30.4499 54.9513
CA -16.8271 -24.4787 58.3368
CA -38.0286 -8.70509 41.9549
CA -42.1355 -13.7979 48.7587
CA -38.3749 -9.17231 51.7888
CA -50.7549 -22.6172 79.5923
CA -25.1175 -36.0319 39.234
CA -9.13747 -7.78559 60.151
CA -27.2751 -36.3918 75.5637
CA -44.9366 -21.5825 55.9982
CA -29.0882 -15.8259 28.6987
CA -35.7633 -31.0805 45.431
CA -46.8229 -37.0863 59.5296
CA -36.1895 -17.5278 67.152
CA -19.491 -26.9066 33.9334
CA -14.6414 -13.7176 37.5709
CA -12.299 -17.7733 15.0027
CA -31.9698 -18.0654 51.9208
CA -36.8742 -40.1241 48.0197
CA -50.8305 -39.4819 35.6444
CA -11.0588 -13.5768 61.7763
CA -13.4557 -28.4152 59.7141
CA -53.7939 -17.4378 61.3971
CA -29.1525 -33.4023 34.8758
CA -8.35718 -22.1186 49.9504
CA -17.6482 -27.9123 43.2091
CA -25.9955 -23.2237 35.2972
CA -55.6222 -27.5603 43.1877
CA -17.962 0.137364 62.2922
CA -12.849 -14.3889 43.0473
CA -40.8302 -43.2801 43.6046
CA -10.2304 -24.5777 43.19
CA -18.7383 -18.9732 90.177
CA -35.5343 -2.27234 60.4382
CA -27.881 -26.099 61.5669
CA -34.7668 -21.311 54.8871
CA -33.1612 -36.2372 49.0854
CA -34.024 -5.81956 36.5851
CA -35.1099 -10.2131 33.8867
CA -53.7315 -11.8418 56.7065
CA -56.6482 -27.5025 49.4414
CA -49.4181 -26.7405 56.9671
CA -22.3861 -16.3253 86.3025
CA -13.7643 -9.78866 1.75405
CA -33.0934 -20.806 48.8711
CA -40.7252 -15.8795 38.461
CA -5.20566 -10.6677 60.4809
CA -14.5698 -5.99005 53.9933
CA -49.9348 -25.5158 72.8046
CA -8.33189 -22.1345 44.682
CA -42.8671 -7.7675 45.8714
CA -32.1856 -14.9484 67.7787
CA -27.7537 -15.6999 33.0344
CA -36.7333 -12.6785 75.8118
CA -21.0424 -5.52916 55.3672
CA -10.8577 -9.38663 3.44252
CA -27.1063 -13.4256 32.3256
CA -25.688 -25.6253 56.8939
CA -50.4888 -8.38833 58.3908
CA -23.031 -3.90929 64.6719
CA -35.1287 -5.68915 55.8426
CA -43.2665 -25.4345 46.8334
CA -46.2292 -32.9063 73.0712
CA -42.9103 -37.7866 78.0943
CA -29.9268 -39.4992 75.5306
CA -21.3705 -30.2447 44.1922
CA -20.8212 -28.6777 39.1714
CA -22.4873 -21.6627 44.1791
CA -32.4314 -32.1884 52.9873
CA -54.814 -25.5632 44.1995
CA -42.4815 -13.7571 61.9825
CA -19.1793 -10.3056 5.29833
CA -34.3049 -1.60799 65.6699
CA -43.8209 -23.9465 56.3848
CA -19.3541 -5.5198 64.5794
CA -26.8333 -18.0368 60.2254
CA -34.2212 -17.5371 41.8974
CA -30.6561 -4.49632 58.0074
CA -38.1 -27.7962 53.9879
CA -10.1491 -5.57652 56.4308
CA -54.6667 -24.001 50.4437
CA -40.3736 -28.6713 76.042
CA -34.5934 -15.073 82.8594
CA -50.0008 -11.7743 51.6653
CA -14.3085 -21.123 52.2619
CA -15.6897 -2.32047 60.9374
CA -38.8739 -21.5121 57.2503
CA -46.6531 -34.058 60.9957
CA -36.7415 -20.5682 61.2116
CA -41.7683 -25.7776 38.4653
CA -45.9383 -18.7047 73.4126
CA -23.1703 -38.2193 37.2212
CA -11.5936 -9.37942 15.3528
CA -44.0096 -13.8682 57.4217
CA -28.7055 -18.2998 32.4422
CA -13.3912 -7.81695 6.98136
CA -49.9677 -32.7188 66.7836
CA -44.443 -7.6606 39.0904
CA -30.1464 -20.2045 51.7199
CA -21.535 -15.3218 52.3352
CA -17.8986 -22.9687 45.2824
CA -16.9118 -22.9641 33.7037
CA -34.3159 -4.99349 33.5222
CA -39.2513 -15.6901 73.4802
CA -31.7915 -13.1084 46.3994
CA -33.7487 -15.6826 54.5631
CA -20.4626 -13.3575 36.782
CA -18.5121 -29.6267 51.2163
CA -33.0249 -37.5277 78.2616
CA -42.3079 -16.8786 38.2957
CA -28.098 -5.66454 43.4861
CA -27.5557 -35.1407 33.1241
CA -35.5291 -1.57213 36.222
CA -11.3372 -27.5857 58.9947
CA -31.0081 -5.07977 49.3018
CA -54.166 -12.7258 49.9378
CA -48.133 -25.0345 44.3214
CA -18.5487 -6.12184 44.092
CA -27.8453 -42.3609 84.6586
CA -20.8193 -7.49223 54.2649
CA -18.8526 -14.6962 32.3943
CA -32.7789 -27.5921 77.4526
CA -18.3836 -7.27647 12.3568
CA -26.7794 -2.20611 59.4351
CA -42.4318 -27.6616 72.1053
CA -12.7326 -12.7148 25.8265
CA -24.2475 -18.3811 83.4064
CA -42.5445 -12.9605 55.2311
CA -25.4448 -16.5696 47.4019
CA -19.9422 -27.1817 53.5005
CA -9.64474 -13.0615 10.7547
CA -39.6915 -15.004 75.7679
CA -39.3451 -29.3329 60.7831
CA -50.5468 -21.174 54.4926
CA -27.0211 0.832803 44.7783
CA -28.1771 -15.0551 59.3634
CA -49.1953 -37.7015 35.626
CA -54.9787 -11.2518 52.498
CA -50.0229 -28.7041 68.0403
CA -57.7901 -27.8873 52.9794
CA -14.1095 -3.92826 8.79738
CA -15.4166 -8.13164 60.6339
CA -27.1343 -40.1703 80.0198
CA -31.9611 -8.8857 69.1913
CA -49.079 -25.4179 37.3005
CA -6.38825 -9.14502 4.49902
CA -29.6855 4.143 44.4109
CA -22.1081 -6.87078 4.91159
CA -44.9819 -5.20661 43.1006
CA -35.7871 -13.0845 44.8037
