489

CA -16.1797 -27.1841 37.6195
CA -22.5639 -6.18021 66.691
CA -28.7808 -14.382 59.6728
CA -17.6603 -15.8273 62.6738
CA -10.6814 -4.68798 4.0918
CA -12.0983 -29.7962 47.4289
CA -41.9702 -21.4148 41.2446
CA -26.9764 3.10738 44.4965
CA -10.9439 -32.6925 42.6782
CA -30.7663 -9.88149 78.4316
CA -29.8044 -2.6636 53.0092
CA -8.84348 -23.4532 53.2535
CA -51.809 -31.0734 57.4654
CA -16.9755 -31.5526 40.3843
CA -31.6162 -18.6645 54.9108
CA -33.3826 -11.4396 50.9315
CA -36.3272 -3.4155 30.7175
CA -38.0258 -19.333 45.6072
CA -27.7296 -19.6819 60.2979
CA -51.9107 -3.8021 59.9893
CA -8.809 -12.084 17.3388
CA -35.6712 -10.755 67.3008
CA -21.8243 -22.9831 58.3299
CA -26.3139 -26.4918 85.4243
CA -19.7577 -1.48798 55.8218
CA -35.9536 -3.08146 35.9845
CA -11.7357 -13.596 10.286
CA -43.9581 -21.1975 34.5039
CA -29.5592 -3.5737 29.4785
CA -28.3883 -9.98087 45.9797
CA -21.6758 -13.8979 56.9429
CA -8.12106 -31.7145 38.3052
CA -23.2717 -0.125754 52.6253
CA -51.2485 -21.2679 43.7428
CA -47.0469 -23.6133 36.5332
CA -31.5768 -45.3792 76.8735
CA -26.0587 -6.29362 63.7341
CA -9.19008 -9.2554 14.3657
CA -17.1046 -29.5112 64.6504
CA -14.6457 -31.0987 59.3509
CA -21.7681 -5.35704 41.8076
CA -29.03 -35.1437 59.9241
CA -20.7241 -24.7308 50.1086
CA -30.4618 -18.2311 85.968
CA -35.1557 -34.4909 64.1424
CA -43.3826 -31.572 45.5589
CA -37.0823 -38.8745 56.5057
CA -43.7939 -11.3362 43.5461
CA -16.9064 -5.39608 36.5179
CA -29.4642 -28.7957 53.5405
CA -31.5298 -43.6872 74.0005
CA -37.329 -30.3766 55.591
CA -28.3081 -8.39372 37.0701
CA -6.62686 -4.49045 62.2126
CA -44.4841 -5.12079 52.1445
CA -41.3558 -17.301 58.0151
CA -46.5211 -23.9529 53.9662
CA -45.6987 -18.6716 70.1415
CA -15.9995 -5.7332 48.5204
CA -24.3561 -29.6694 36.2064
CA -45.4889 -20.4861 50.4091
CA -42.6597 -24.4654 66.8825
CA -26.5075 -41.7355 71.4005
CA -29.9223 -24.982 59.8769
CA -48.3909 -14.26 46.9173
CA -19.1042 -26.0866 32.4545
CA -33.8013 -13.8785 67.5153
CA -30.0707 -42.0723 73.3168
CA -33.5328 -29.1657 67.0801
CA -36.864 -10.9978 76.3581
CA -31.3576 -30.3752 60.5715
CA -53.196 -9.17077 57.0346
CA -21.3063 -14.8453 40.5112
CA -59.9175 -18.468 49.7434
CA -29.8611 -33.2378 37.0724
CA -50.9836 -31.4281 75.4454
CA -39.511 -22.6901 66.4424
CA -8.2538 0.27986 62.8911
CA -12.8144 -3.74954 56.9101
CA -8.99398 -16.2417 17.3137
CA -41.2674 -23.6492 41.3256
CA -39.323 -36.8422 57.2364
CA -25.8964 -12.0111 79.1293
CA -43.2403 -22.8301 62.6403
CA -38.5401 -30.863 57.3979
CA -22.6956 -5.26043 5.94335
CA -26.6281 -21.4783 69.4405
CA -46.6785 -25.5154 51.0055
CA -39.115 -8.25742 63.4036
CA -46.3061 -22.5108 71.8471
CA -23.8957 -15.3733 39.394
CA -31.7336 2.69454 47.7614
CA -27.7269 -28.0599 49.1266
CA -29.1949 -16.1903 69.6559
CA -29.4098 -22.1922 78.57
CA -22.9351 -32.9986 34.7532
CA -35.4013 -8.1893 52.5373
CA -17.4974 -33.1152 35.9295
CA -48.3329 -33.4829 64.8339
CA -35.9704 4.69966 46.7986
CA -19.6767 -9.47501 46.217
CA -35.9171 -27.4652 41.8792
CA -36.478 -30.4116 71.3857
CA -31.2904 -15.814 59.3232
CA -12.9302 -26.634 58.4247
CA -45.2594 -20.1858 35.9674
CA -47.87 -23.0687 64.9872
CA -38.0524 -42.5938 47.395
CA -32.5178 -21.3678 74.4096
CA -46.0962 -13.039 37.2125
CA -29.8353 -17.1671 80.5974
CA -28.5321 -31.4137 58.3567
CA -7.23655 -15.6252 17.0725
CA -19.5208 -35.1575 34.4949
CA -17.6684 -35.9646 61.4987
CA -31.4851 -40.3015 76.9418
CA -33.7883 -21.4439 37.178
CA -4.8896 -9.60839 10.3751
CA -30.8887 -25.7671 40.986
CA -34.6685 -17.7622 41.5428
CA -27.2219 -36.5124 40.529
CA -28.6628 -21.611 71.993
CA -37.705 -14.8971 43.3371
CA -22.8645 -17.6706 36.5368
CA -48.7078 -11.3207 41.26
CA -28.1394 0.958316 44.392
CA -35.8411 -3.90163 61.6368
CA -40.0895 -37.6838 47.0099
CA -21.6625 -9.6727 62.1968
CA -56.8861 -20.9232 47.3335
CA -48.6071 -9.45395 57.1484
CA -31.5406 -31.5954 74.2152
CA -24.2856 -12.1363 61.4093
CA -8.93577 -33.7235 46.8174
CA -59.4741 -17.0691 47.867
CA -10.8744 -1.64365 59.4712
CA -18.9133 -32.6759 55.7265
CA -4.22858 -26.0464 54.3455
CA -42.2235 -33.1986 36.2194
CA -26.6698 -34.0719 55.5448
CA -11.7121 -27.9828 54.8132
CA -48.6729 -29.0773 33.7573
CA -33.3884 -11.5341 73.9486
CA -13.7094 -22.4548 38.4586
CA -31.6235 -5.36629 46.5137
CA -24.6659 -16.9051 51.4954
CA -54.1156 -32.8692 48.5792
CA -34.5895 -20.6462 49.2468
CA -12.6218 -31.4125 57.3228
CA -26.1975 -22.0871 62.1809
CA -54.1597 -14.9005 48.1607
CA -30.709 -36.5047 43.1563
CA -10.607 -22.823 51.3451
CA -20.1312 -1.66281 58.46
CA -33.1656 7.87228 49.2943
CA -12.5378 -4.39508 64.0591
CA -54.9756 -15.5334 49.7545
CA -28.1586 -2.65351 67.123
CA -41.3753 -34.0536 65.7486
CA -13.4738 -22.5327 63.1025
CA -8.28317 -13.1169 3.19405
CA -45.9733 -30.3682 32.9829
CA -25.0222 -24.3708 50.1372
CA -23.7076 -13.5544 35.1038
CA -19.561 -3.88073 33.9197
CA -49.1135 -29.754 55.21
CA -31.4464 -3.15494 42.6177
CA -26.0452 -16.2215 61.0195
CA -34.8815 -34.4001 58.315
CA -31.2429 -21.3619 32.7929
CA -32.128 2.0315 49.4448
CA -26.369 -21.7519 83.6373
CA -35.7604 -18.7409 58.0832
CA -33.2393 -23.1103 53.7994
CA -45.8157 -28.9137 70.9734
CA -45.5425 -26.5781 63.8321
CA -6.31873 -13.7653 8.42343
CA -27.5432 -3.76841 43.8143
CA -32.1686 -9.32572 51.1849
CA -36.8001 -10.3059 71.0488
CA -30.1153 -14.1672 80.7493
CA -18.9997 -21.4487 60.501
CA -36.5867 -26.2875 74.1582
CA -51.3643 -41.7786 59.7843
CA -36.2695 -27.2303 39.4412
CA -55.1391 -24.8814 43.1789
CA -31.4136 -5.98025 68.4599
CA -47.274 -34.9909 33.643
CA -50.6227 -18.4202 80.9172
CA -36.2481 -23.986 56.3189
CA -21.3657 -36.0459 42.1942
CA -9.28079 -7.25974 17.837
CA -44.6619 -24.3141 73.575
CA -33.3818 -42.4051 77.0982
CA -29.751 -32.4726 55.7943
CA -8.44012 -9.66118 64.5022
CA -42.9317 -13.177 53.4354
CA -27.9505 -16.2486 52.0891
CA -7.5876 -31.1369 41.4366
CA -33.6316 -23.0795 84.5282
CA -27.4331 -30.0564 45.0805
CA -30.1104 -0.99421 55.0501
CA -37.0032 -34.8207 51.322
CA -24.4673 6.06789 44.3173
CA -24.5028 -13.7094 50.2228
CA -10.9464 -5.59824 60.2768
CA -32.8733 -38.4193 80.9391
CA -34.644 -20.7635 46.341
CA -44.211 -14.1242 51.1105
CA -27.5274 -27.678 64.9548
CA -27.9676 -35.3259 57.8803
CA -17.7202 -22.764 55.9738
CA -46.9306 -32.9123 35.5492
CA -16.9971 -11.7149 53.7168
CA -28.1689 -22.8008 50.8073
CA -21.4889 -1.74904 51.8053
CA -27.4632 9.59296 41.7604
CA -47.6781 -28.744 63.709
CA -24.2985 -1.90649 39.9011
CA -38.6075 -14.5852 39.9671
CA -28.8192 -27.4434 47.3783
CA -14.8197 -9.5772 46.1396
CA -26.6052 -5.12648 33.0831
CA -43.0184 -32.1896 70.6294
CA -22.4374 -36.3503 57.3208
CA -14.567 -12.472 7.25565
CA -18.0938 -0.891026 62.2124
CA -45.6655 -13.7449 44.506
CA -21.3474 -15.5491 62.1144
CA -23.6567 -7.39713 36.2506
CA -3.6915 -15.9203 17.2707
CA -36.8129 -17.845 36.2384
CA -30.8644 -24.065 76.1102
CA -48.3187 -32.4289 71.7336
CA -25.6538 -9.23267 62.2463
CA -44.2204 -8.26567 52.7643
CA -60.8853 -17.5651 45.1525
CA -18.0394 -26.9319 45.4811
CA -36.2473 -12.2924 41.5452
CA -15.9767 -33.3932 54.3908
CA -43.5795 -29.3424 36.3671
CA -34.1273 -13.3066 32.5225
CA -29.0166 -22.91 73.2779
CA -33.2893 3.95051 44.0694
CA -10.8826 -17.0811 49.0443
CA -46.8377 -34.3594 63.7043
CA -39.2612 -12.4841 36.0851
CA -19.045 -8.68711 41.5813
CA -25.6247 -4.0181 61.4704
CA -44.7641 -19.2006 75.5509
CA -37.4598 -46.6063 51.6818
CA -44.1638 -7.18822 43.7948
CA -43.421 -17.0833 57.8851
CA -14.9839 -34.352 44.1651
CA -25.076 -24.04 54.0366
CA -12.1322 -13.3121 22.7715
CA -48.6379 -31.7727 61.0726
CA -12.9568 -13.8878 15.1859
CA -19.8547 -19.6494 34.468
CA -27.7562 -5.42741 65.0825
CA -39.5125 -27.5225 74.2805
CA -15.6799 -15.6633 33.128
CA -51.0779 -21.9264 80.2303
CA -39.7448 -32.9005 61.7603
CA -36.1905 -15.2826 56.1289
CA -35.5332 -10.0731 72.464
CA -15.3121 -12.7133 29.2293
CA -14.3161 -6.00359 4.71839
CA -46.6595 -9.05626 55.1715
CA -28.501 -42.5933 80.5492
CA -33.9352 -26.9677 54.9395
CA -23.2656 -19.3715 63.0939
CA -38.8126 -37.7593 61.5053
CA -13.5186 -18.7859 33.8615
CA -16.465 -35.6619 42.7535
CA -16.8037 -22.8924 36.002
CA -50.1229 -34.9842 39.5535
CA -40.9571 -28.5696 45.2241
CA -50.2872 -18.4103 71.1462
CA -20.0004 -28.8084 48.6471
CA -48.8739 -8.25816 44.7021
CA -8.80959 -11.4728 19.0834
CA -18.1091 -31.8806 60.4968
CA -31.2058 -22.2004 61.3531
CA -30.0165 -11.5391 34.7917
CA -24.4328 -35.2707 42.355
CA -26.006 -24.4196 42.4293
CA -37.7507 -45.274 50.0518
CA -14.0779 -14.8554 53.8987
CA -20.9922 -22.2237 43.001
CA -32.2187 -7.29784 73.2478
CA -24.6494 -28.992 30.4548
CA -32.162 -13.4768 81.1825
CA -30.3796 -8.0852 65.1651
CA -40.2866 -33.8215 60.1688
CA -40.718 -23.6282 45.1643
CA -39.4851 -34.4297 69.2747
CA -18.4027 -9.64832 49.1783
CA -24.2846 -21.586 41.6986
CA -37.8614 -4.38908 63.951
CA -34.8269 -15.7509 36.1625
CA -38.7186 -16.9454 58.4085
CA -32.5964 -21.4164 76.9894
CA -14.7376 -7.22514 52.765
CA -47.6951 -7.24413 39.3687
CA -11.3073 -21.5286 47.9503
CA -10.2977 -28.945 51.3949
CA -50.4249 -36.1348 57.9703
CA -25.2161 -9.00407 35.2372
CA -46.4403 -11.6052 42.7319
CA -28.533 -17.7847 70.1928
CA -29.108 -29.6624 65.8693
CA -9.401 -10.2956 60.2293
CA -21.0646 -17.9204 30.8634
CA -44.4167 -23.6701 64.561
CA -29.1922 -11.0616 60.8342
CA -29.6856 -23.2717 81.4201
CA -26.336 -32.6144 39.2961
CA -45.5225 -28.6796 77.2422
CA -48.8012 -30.8532 34.5328
CA -42.2376 -15.9439 31.8302
CA -26.4319 -5.12845 52.9894
CA -28.0352 -35.1803 44.8125
CA -52.6627 -27.7808 43.5525
CA -22.1164 -21.0153 41.3336
CA -38.8418 -4.119 37.3373
CA -33.6446 -18.2835 32.2854
CA -15.2168 -28.9004 44.7268
CA -50.8746 -13.022 55.2409
CA -25.4307 -13.2699 36.7759
CA -55.1107 -13.4036 56.825
CA -7.22167 -14.2749 57.1408
CA -19.3541 -3.08072 39.203
CA -9.98803 -8.07522 55.8673
CA -20.8043 -5.79659 53.4107
CA -43.5098 -23.0777 50.6464
CA -39.8955 -44.4415 54.8456
CA -53.4471 -1.93503 63.425
CA -20.3273 -21.3509 63.6452
CA -41.247 -16.6559 43.1948
CA -24.0828 -30.4809 39.4205
CA -14.3023 -28.2002 63.654
CA -34.1423 -18.7985 44.7979
CA -26.7974 -2.78709 62.2966
CA -30.615 4.77074 49.0649
CA -44.2765 -21.1792 32.7322
CA -42.5545 -6.30858 64.6334
CA -15.8863 -18.6709 32.3932
CA -36.8732 -28.9478 53.6065
CA -25.1853 -4.94149 51.4692
CA -15.635 -22.1507 51.6639
CA -56.3554 -26.1009 48.4079
CA -48.6147 -19.9667 76.4554
CA -44.1539 -10.879 55.9624
CA -36.6988 -21.5894 46.1092
CA -12.299 -17.7733 15.0027
CA -44.9881 -31.5835 63.3322
CA -9.19771 -9.95032 23.289
CA -16.6413 -40.8192 33.0887
CA -45.0059 -26.3152 33.5323
CA -29.1638 -11.9875 44.9425
CA -27.1515 -25.8978 46.2815
CA -28.6613 -7.56337 33.2348
CA -10.5454 -32.7602 47.0879
CA -28.7473 -12.0307 65.8934
CA -19.7697 -17.4307 52.4579
CA -17.7259 -9.2778 29.6932
CA -45.1578 -35.3663 38.6688
CA -28.1585 -31.0262 35.1501
CA -33.782 -36.188 79.3959
CA -44.4059 -32.8922 38.841
CA -24.7895 -15.6141 43.1292
CA -10.2216 -12.6459 51.9923
CA -27.881 -26.099 61.5669
CA -49.3438 -26.0139 44.1715
CA -33.1612 -36.2372 49.0854
CA -33.3876 -38.4959 63.7203
CA -40.5398 -20.829 39.957
CA -22.0811 -31.0032 57.3855
CA -17.2156 -37.7453 36.3507
CA -49.4181 -26.7405 56.9671
CA -39.5557 -38.1338 38.4786
CA -30.9824 -19.1487 70.5828
CA -35.922 -6.806 34.999
CA -29.1068 6.09016 48.5885
CA -36.9243 -16.3711 80.2399
CA -30.5398 -39.0656 79.1834
CA -43.0088 -19.6414 70.4152
CA -20.486 -33.0822 65.612
CA -18.3571 -14.1965 31.3207
CA -28.3945 -40.8062 74.5364
CA -40.2282 -35.4886 41.4417
CA -31.4368 -26.4812 82.1359
CA -54.1021 -12.0502 53.4585
CA -10.8577 -9.38663 3.44252
CA -58.9676 -23.4131 46.9263
CA -25.688 -25.6253 56.8939
CA -50.4888 -8.38833 58.3908
CA -47.3668 -38.1358 60.0153
CA -36.4409 -11.7665 54.2
CA -21.4167 -30.7508 35.1209
CA -25.2829 -24.6332 81.5141
CA -42.0955 -36.0116 61.5331
CA -46.133 -9.66887 52.8021
CA -11.1237 -30.7569 52.1958
CA -22.4898 -5.67958 49.4537
CA -29.2875 -12.099 30.6148
CA -48.556 -19.537 73.7236
CA -12.1511 -16.5301 35.1501
CA -42.4815 -13.7571 61.9825
CA -19.1793 -10.3056 5.29833
CA -19.8847 -17.822 36.6
CA -44.5007 -15.9949 72.8036
CA -24.2886 -24.2664 46.9126
CA -19.6328 2.10821 43.1406
CA -28.2331 -26.9014 27.842
CA -21.8125 -25.6593 43.5573
CA -20.3948 -41.1132 39.3034
CA -16.607 -8.80098 48.5564
CA -53.6797 -30.0191 47.3104
CA -52.3308 -28.8359 49.5527
CA -34.5934 -15.073 82.8594
CA -34.3619 -18.8172 47.8207
CA -30.6576 -11.2511 46.7345
CA -48.2563 -31.6772 37.851
CA -25.3587 -18.6944 67.493
CA -26.0222 -11.644 33.8976
CA -35.6864 -33.9941 52.848
CA -34.1343 -29.1528 56.751
CA -6.66529 -27.5508 51.0828
CA -48.2676 -25.2123 54.6608
CA -11.5936 -9.37942 15.3528
CA -15.0154 -9.83232 8.63799
CA -29.2734 8.94858 46.0893
CA -24.6446 -3.23431 55.4716
CA -19.3042 -22.1204 54.9345
CA -14.9336 0.654548 58.9014
CA -50.5931 -5.95501 48.7741
CA -24.6819 -12.2406 48.197
CA -23.0323 -29.2735 57.3253
CA -34.9913 -42.8118 80.7538
CA -11.1349 -9.9958 56.8919
CA -2.64617 -26.5009 55.5809
CA -31.4137 -12.3377 54.9141
CA -42.9626 -23.1005 35.22
CA -23.1091 -16.2512 70.2364
CA -13.5688 -22.1227 34.9794
CA -30.9073 -16.8318 84.7698
CA -23.4693 1.20761 43.2619
CA -28.098 -5.66454 43.4861
CA -33.6031 -7.15959 30.2896
CA -31.3166 -6.93338 45.554
CA -24.9942 -28.9457 56.8239
CA -36.632 -12.8199 72.9348
CA -33.1205 -37.016 75.1232
CA -18.4956 -28.5014 37.5547
CA -34.1256 -8.74174 71.9685
CA -14.6502 -8.46632 50.4365
CA -37.2342 -9.62342 32.7799
CA -37.9179 -14.4649 64.0352
CA -48.566 -29.9071 49.3829
CA -12.6307 -14.4531 11.922
CA -16.9791 -37.2984 42.188
CA -42.4318 -27.6616 72.1053
CA -12.7326 -12.7148 25.8265
CA -40.7136 -22.295 61.1945
CA -42.5445 -12.9605 55.2311
CA -53.421 -21.408 45.7807
CA -30.6226 -34.9361 62.26
CA -22.6063 -24.286 33.3171
CA -22.5861 -22.8205 67.3775
CA -37.2121 -22.6056 79.1491
CA -36.9499 -25.3052 76.0843
CA -31.1036 -6.84575 43.4198
CA -51.1806 -19.5857 62.0753
CA -11.3428 -11.7201 5.47024
CA -45.3856 -18.3539 36.9493
CA -13.8906 -25.8969 53.2535
CA -47.6776 -24.5576 61.0385
CA -39.4231 -38.9562 51.9151
CA -18.7953 -24.0955 56.8254
CA -40.5872 -19.5755 46.3068
CA -35.2771 -6.75876 30.8418
CA -35.8846 -31.0858 76.8879
CA -6.38825 -9.14502 4.49902
CA -47.8322 -27.539 72.5237
CA -22.1081 -6.87078 4.91159
CA -56.8567 -20.079 43.3863
CA -12.8843 0.420859 54.2856
