489

CA -12.1217 -47.0125 64.2129
CA 2.71988 -39.197 50.8137
CA -14.9863 -22.0508 36.0267
CA 38.1058 17.2144 36.2689
CA -3.70779 17.6354 34.8798
CA 10.5761 28.6198 43.5328
CA -16.0457 -35.969 51.6967
CA 0.16841 -28.0169 40.0053
CA -0.402733 -15.4656 22.0873
CA -20.1297 -4.0963 22.1025
CA -15.1783 11.2164 32.8131
CA 14.0679 13.6657 29.4403
CA 7.43532 -6.42192 17.6459
CA -2.02802 -30.4 53.64
CA 5.44729 -30.1171 43.308
CA -6.19516 -38.8957 66.1186
CA -22.3792 -10.0415 47.0443
CA -17.8554 -21.062 22.1634
CA -17.9004 15.6354 25.5368
CA -17.67 -32.5564 51.2514
CA -18.414 -37.4684 52.3885
CA 4.8917 -10.4578 29.9455
CA -5.02433 15.8886 55.203
CA 1.01259 -15.0626 23.744
CA -18.2847 -14.5302 45.3955
CA -0.861139 -25.8519 45.5239
CA -1.1576 7.30942 46.7336
CA -18.7716 -12.9222 17.2492
CA 0.281546 12.3471 46.1829
CA -12.9616 -17.3558 59.5116
CA 14.8012 24.8156 47.0827
CA -2.6975 -26.9462 40.8579
CA -3.5871 -39.306 61.2777
CA 6.55272 14.3182 41.0382
CA -1.43622 5.78188 57.9247
CA -3.86945 15.9965 40.3092
CA -20.4086 -16.6116 50.1937
CA 4.87843 -25.0295 35.6141
CA -12.16 -4.93309 47.7465
CA -0.003662 13.0365 48.6573
CA -27.1559 -19.3646 47.4382
CA -5.92422 -45.9989 68.7495
CA 0.693493 -16.7186 44.7881
CA 19.0208 -2.90852 53.6026
CA -24.3878 -4.03299 15.3362
CA -20.7495 14.8557 49.1443
CA -18.0668 -19.4047 37.8303
CA -4.03056 -25.3526 40.0466
CA -18.845 17.3218 47.6142
CA 7.55844 3.87153 57.1212
CA -7.43532 8.53822 52.7698
CA -15.349 -23.5183 10.691
CA -2.71201 -22.247 42.2209
CA -3.44085 -21.8055 46.6793
CA 1.40287 6.65602 59.2573
CA -2.21135 -21.1104 45.5442
CA -14.1101 13.2103 30.312
CA -18.2089 -6.15593 24.0137
CA -2.58801 -16.2725 44.5627
CA -5.56094 -21.2975 67.6023
CA -6.11219 4.53311 64.3875
CA -0.0595245 -19.7322 20.9283
CA -12.3596 7.75949 56.541
CA -2.01582 20.1256 39.7675
CA -8.29606 -15.4555 19.365
CA -23.7147 -15.5479 45.2072
CA 0.958096 7.27267 23.3898
CA -1.3266 -12.193 25.0541
CA 7.02478 -6.87626 20.7315
CA -1.25834 -18.6928 28.0799
CA 14.6352 1.03976 20.9309
CA 7.62323 2.22662 70.6361
CA -20.1721 -13.0959 63.9801
CA -9.17874 14.3443 32.3189
CA -8.83202 -19.5428 64.7161
CA 7.66773 6.86928 45.973
CA -23.2215 -16.1698 37.3377
CA -10.1841 -14.7834 27.653
CA -5.31102 -39.1055 62.8719
CA 2.3997 4.81667 65.0951
CA 4.03284 15.7419 55.5486
CA 9.13624 29.6506 46.2585
CA -7.25824 -16.1675 42.7224
CA -8.98863 -15.8241 57.1861
CA 9.51209 9.64765 31.4799
CA -8.51631 -45.4323 66.3623
CA 3.43106 7.90764 44.8835
CA -20.254 -24.9304 22.4747
CA -16.0456 -12.7375 16.2784
CA -3.45665 -16.1103 60.3706
CA -4.14568 -33.734 44.9786
CA 9.74292 -7.76106 21.8089
CA -7.4766 -43.2044 62.4982
CA -5.57249 -21.4142 22.6305
CA -0.168422 -22.7544 24.7417
CA 9.6774 11.0989 34.8649
CA 1.9145 19.3309 39.432
CA -22.5227 -12.3414 46.8206
CA -12.7499 -21.6375 23.5533
CA -5.85603 0.309134 27.9381
CA -23.158 -19.6977 49.4082
CA -3.20982 -29.4452 46.1404
CA 0.940884 3.96803 27.2523
CA -9.02182 -44.8921 62.7095
CA 12.3167 20.0486 46.5237
CA -12.6719 -13.3678 27.2914
CA -6.41064 -20.1668 25.7538
CA -24.4822 -7.51491 46.7832
CA -15.0905 1.47214 56.8196
CA -4.82191 -32.9555 67.5501
CA 7.86504 -19.9523 30.1466
CA -8.16272 7.27917 55.3172
CA -26.861 2.09744 58.7758
CA -18.7611 11.0365 34.1634
CA 0.492167 13.7694 54.1123
CA -16.7989 -14.2178 64.0682
CA -4.05645 9.37829 47.2853
CA 5.63692 2.92587 64.9235
CA -6.03128 -34.7757 55.2488
CA -4.32657 17.3082 49.1857
CA -10.3777 -5.85581 14.6776
CA 7.04554 18.2604 34.5228
CA -14.8619 -18.0054 18.587
CA -1.40467 -12.7101 33.7728
CA -10.2688 -32.3119 45.1936
CA 1.90998 5.55265 34.4907
CA 7.57766 9.28142 45.8354
CA -14.6851 -28.3447 56.4863
CA -11.1473 -22.0124 11.4496
CA -5.09046 -18.0315 43.3211
CA -9.77576 -24.0021 56.296
CA 16.1159 -2.13857 53.3547
CA -8.18538 -12.4657 56.4277
CA -15.8946 -49.4162 45.3879
CA -18.8472 -0.687859 29.0128
CA -24.544 -14.82 36.5756
CA 0.648516 -21.4834 43.3739
CA -11.0852 -37.83 61.5722
CA -26.6418 -6.21746 19.0438
CA 4.42383 -14.0585 26.9939
CA -15.9506 4.62924 29.0205
CA -2.08129 -20.6342 59.2073
CA -15.1646 -21.2865 38.8321
CA -17.9804 1.11373 27.5249
CA -2.17021 16.7054 39.6771
CA 4.11074 4.90927 24.2879
CA 4.47928 -24.154 30.8862
CA -2.2286 -17.6377 24.2788
CA 12.0341 27.1782 42.5494
CA -16.2664 -18.2404 44.307
CA -9.12176 -22.3287 21.2817
CA -16.5382 -11.3983 55.7807
CA -15.2875 -20.2213 44.4362
CA -18.6571 15.6725 36.3428
CA -5.22918 -13.894 19.7175
CA -27.0924 -18.9301 49.4609
CA -12.2337 -8.8126 17.7893
CA -21.6868 11.7492 40.2575
CA 38.2766 10.5262 87.9834
CA -20.1605 -26.8094 23.2381
CA -19.8854 -14.8003 47.8166
CA -6.74203 3.00709 61.6699
CA -2.70351 -17.5468 57.4905
CA -5.61219 -42.9773 62.4691
CA -6.27582 -13.3176 26.3573
CA -23.056 -30.6525 21.0415
CA -2.22533 -21.2584 33.8454
CA -16.2834 4.6705 52.1986
CA -20.1952 -20.1818 22.87
CA -20.6868 -18.9226 41.4798
CA 9.9462 18.4269 47.3041
CA -13.7639 -3.99673 26.6542
CA -19.4295 -14.4555 62.5396
CA -17.9015 -28.5927 49.1643
CA -8.49726 -11.108 60.6907
CA 5.31036 24.187 53.0696
CA -20.0137 -25.5823 52.2985
CA 3.74902 -21.7927 38.0922
CA 4.32295 -18.9826 32.9786
CA 5.49491 -18.2458 40.1285
CA -10.5778 -42.8237 46.7473
CA 17.1396 20.842 45.4875
CA 4.28831 17.0859 39.5826
CA -3.32245 -43.315 60.8742
CA -12.9176 -11.7574 20.5032
CA -10.8334 -22.5932 45.1682
CA 6.37114 7.35826 42.6584
CA 8.63846 -17.6574 81.8141
CA 8.1694 5.57297 34.741
CA 16.5028 -2.31616 55.4291
CA -7.06751 -27.6978 56.0667
CA -4.38347 14.9715 50.5794
CA -4.756 -42.5035 66.0501
CA 3.38179 10.7978 50.1755
CA -22.0616 -4.15147 15.2508
CA -22.1654 -16.2312 52.3472
CA -0.110875 9.13155 44.7553
CA 7.92813 -8.18101 19.1135
CA -16.7963 -4.03965 49.2764
CA -17.3415 3.00714 58.0085
CA -9.07478 11.5291 47.7002
CA -6.98306 -38.2959 59.2027
CA -4.93915 16.4045 42.6803
CA -22.8847 -18.0711 37.8343
CA 8.02003 -16.2091 31.6928
CA -4.63858 11.9677 40.4139
CA 24.9572 20.9233 46.5201
CA 11.9884 8.96137 32.4957
CA -22.084 12.6906 37.2911
CA -19.2965 -12.1328 25.1198
CA -8.96048 -29.3082 57.1743
CA -23.1018 -13.1956 60.6978
CA -6.85185 -14.8042 22.2379
CA -2.227 -14.2512 24.1384
CA -6.17783 6.59145 28.4325
CA -2.17618 -21.9383 56.0067
CA 45.115 -14.0668 44.7002
CA -0.721593 -27.2281 42.9566
CA -4.34361 -38.818 66.5268
CA -2.03239 -19.5064 25.2012
CA -1.77459 -21.257 43.7231
CA -7.07804 -13.1529 64.2788
CA -0.0313482 16.1048 57.3022
CA -0.0096651 -23.5689 30.66
CA -6.80521 7.72742 58.2601
CA -20.1829 -20.1257 45.8458
CA -6.44429 1.15346 60.4406
CA -3.98878 6.16453 64.3884
CA 2.2308 -21.5132 49.7357
CA -10.1773 -13.1678 61.2797
CA 4.86217 -37.5913 49.2617
CA 2.147 13.8201 46.3847
CA 2.45564 10.3152 48.0129
CA -16.9753 -2.76932 24.2447
CA -14.5868 -5.84662 27.4676
CA 9.77062 -32.5716 48.1769
CA 8.18685 15.199 32.6285
CA -8.61339 -42.2637 69.0028
CA -8.16552 -23.4835 14.6993
CA 5.79083 16.6543 34.7363
CA 7.54817 2.00734 72.4245
CA 13.3146 -22.5303 32.4941
CA -3.83157 -19.1369 21.6849
CA -18.0424 -15.8407 48.7575
CA -13.2174 -8.80226 62.8717
CA -4.56777 8.20346 55.5727
CA -4.21885 -26.3121 43.9955
CA -10.2856 -15.8972 24.0354
CA -10.6057 -8.71397 15.9876
CA -12.4388 -12.3881 50.6928
CA 0.384778 -35.0836 51.5233
CA 8.17145 7.09867 32.3825
CA -17.1151 16.0784 44.6655
CA -3.11663 13.0093 50.8707
CA -19.2534 -43.9276 47.3678
CA 10.9237 24.2599 40.7773
CA 5.38767 -7.72327 33.6545
CA -4.02961 9.67229 57.7378
CA -5.84711 5.69991 58.1309
CA -12.3867 -14.4925 25.8592
CA 15.8893 10.1988 32.2015
CA -12.7354 -25.4647 15.2751
CA -1.79129 -16.1091 23.2169
CA 23.6352 20.1488 49.8428
CA -12.1702 -14.4296 18.892
CA 13.1799 27.3538 44.2933
CA -10.549 -16.4075 44.2334
CA 8.44437 5.6619 54.0886
CA 2.49495 6.65478 71.2807
CA 2.58581 7.70983 26.9103
CA -5.17786 -21.1037 59.8194
CA 1.21927 3.28799 48.6165
CA 0.298996 17.3092 48.4031
CA 12.6596 7.75765 30.9018
CA 5.12476 5.74883 68.5857
CA -1.20737 -10.846 23.7067
CA -4.03739 -39.8339 58.5073
CA -4.54295 -23.654 25.0534
CA -17.6786 -19.1684 41.033
CA -15.8543 -12.539 63.6246
CA -9.74591 -17.3371 30.5948
CA -17.9326 -16.8725 41.804
CA -19.0904 14.8108 45.5545
CA 5.14646 -33.0027 45.7211
CA -1.85971 -7.32102 20.6401
CA 3.72646 -30.2179 46.619
CA -15.7788 13.972 30.0937
CA -24.354 -33.159 20.7566
CA -5.05911 -40.9493 68.3553
CA 6.5801 -26.7628 39.6678
CA 10.9484 -6.02857 14.5977
CA -23.3228 6.3509 56.3795
CA 1.13913 23.6169 54.6415
CA -15.2207 9.9597 48.0096
CA 6.54273 -23.4739 37.9251
CA 6.83763 -8.70616 30.9932
CA -24.5846 -15.6762 47.0541
CA -19.1379 -15.2467 24.5877
CA -17.8605 -17.7214 62.7774
CA 2.09968 7.39784 31.2208
CA -19.3365 -8.8478 50.1729
CA -22.5505 -6.43973 20.1442
CA -7.05659 -25.1214 66.9377
CA -20.2946 9.91873 39.6569
CA -13.5538 -17.2913 63.0325
CA -5.08063 14.4584 42.0444
CA -1.09296 -22.2796 32.6941
CA -15.6801 -21.1829 42.7749
CA -9.83327 -33.6894 62.9204
CA -19.1151 -13.7544 51.0993
CA 5.13689 8.49834 35.8244
CA -17.5032 12.9536 44.1887
CA 7.46693 9.13028 33.9301
CA 20.8935 -2.68998 53.6729
CA -16.4233 -16.0667 65.8895
CA -1.15391 -3.2949 25.6307
CA -6.39953 -45.303 70.7479
CA -12.2991 -20.3111 36.0936
CA -2.25782 13.6031 55.6851
CA -10.218 -10.7967 24.3082
CA -7.7299 -26.144 56.6989
CA 3.5444 14.9093 39.376
CA -16.8863 16.5962 31.2768
CA 9.29102 25.1197 41.8222
CA -12.4754 -15.4164 62.746
CA -19.0055 -46.1603 45.5999
CA 44.1122 -15.1139 47.4432
CA 9.22192 16.7384 30.1692
CA -19.5062 11.9529 39.2996
CA 15.5747 20.7738 43.843
CA -0.716059 -28.755 30.1898
CA -20.0484 -39.957 49.2772
CA -0.319329 -39.8739 51.9327
CA 5.3256 5.71306 50.5548
CA -17.8531 5.40724 29.9176
CA -19.9208 -15.938 61.3863
CA -15.6134 4.54697 30.8632
CA -11.1579 -18.2666 59.6314
CA -8.54366 -21.5177 64.8234
CA -19.8329 -26.5586 20.0736
CA -11.8909 9.84851 45.2807
CA -0.835767 6.00159 26.1393
CA -6.24686 6.94109 61.7651
CA -2.98201 11.9486 37.4537
CA -3.26777 -16.3996 21.2388
CA -15.5405 15.5583 32.1703
CA 5.94109 -22.2022 41.7504
CA -0.320179 -17.5192 24.3459
CA 3.63901 9.43783 40.3772
CA 17.2882 11.7693 30.2119
CA 7.33807 -33.5734 44.1721
CA -1.73032 -25.9962 27.4676
CA -0.549965 -9.93001 39.5811
CA -1.87119 -9.02169 37.2375
CA -13.9337 8.21999 54.8222
CA -17.6857 -26.678 53.5938
CA -0.238535 6.50684 28.9235
CA 4.17358 8.34649 60.1005
CA -7.02199 -16.9797 21.137
CA 11.1506 28.6547 47.5084
CA 5.62526 7.43774 38.1817
CA 17.0874 1.48128 22.1355
CA -7.22765 7.81856 64.7703
CA -17.6854 -17.872 46.6703
CA 2.81237 21.7169 39.6458
CA -6.32628 -18.7113 61.1623
CA -11.5649 -22.6868 59.5742
CA 2.76384 -12.0373 28.9133
CA 18.4372 9.88474 36.499
CA -6.67874 -22.6381 25.3862
CA -0.665219 5.09247 83.0261
CA -15.9489 -29.4124 22.3518
CA -21.9384 -19.8701 43.3533
CA 19.2687 -25.1694 33.3295
CA -17.1958 -41.5424 47.1181
CA -2.45605 24.2924 38.4497
CA -11.1743 -26.5114 59.2068
CA 1.82385 14.0926 57.4605
CA -18.5567 -33.7024 18.4335
CA -24.4997 -14.8012 38.3871
CA -13.7129 -15.3526 53.634
CA -23.9803 0.728645 57.6129
CA 12.1762 13.8025 31.7747
CA -5.70446 -16.9125 40.8491
CA -15.8361 -5.91057 19.6272
CA -3.22494 4.77017 28.5859
CA 5.32344 -16.6193 30.6893
CA -15.0793 -15.6875 42.8613
CA 2.1217 10.4683 44.6738
CA 5.0234 22.515 54.7995
CA -19.3181 -21.8352 41.8481
CA -25.9554 -8.39011 37.5396
CA -15.4963 -16.2571 38.6389
CA 1.91983 -17.4002 34.2279
CA -19.1854 -33.8003 16.6986
CA -22.546 -5.98203 41.4876
CA -17.0564 -14.812 62.099
CA -4.32686 -36.2303 53.4335
CA -3.91459 -30.0476 53.1996
CA 6.40829 -27.7795 37.5831
CA -12.7688 -23.3276 14.6406
CA 1.34053 11.2375 57.0785
CA -18.9736 -2.50943 24.1319
CA 8.27967 8.05606 64.0102
CA -5.73803 -31.3386 44.8684
CA -16.3192 -31.1236 53.2512
CA -6.01623 -16.8119 56.6055
CA -20.7389 -14.0837 14.243
CA -13.7297 -19.3377 38.567
CA -23.1841 -27.2652 20.4289
CA -1.95846 8.63138 48.9986
CA -15.7168 15.4856 42.5518
CA 1.92243 -6.94302 31.278
CA 8.84745 15.8667 41.3149
CA 22.9434 19.6549 88.3074
CA -13.9773 -26.9689 26.7839
CA -17.3249 -12.3253 60.9089
CA -0.158612 8.28071 43.0869
CA 1.36679 4.27501 23.4048
CA 6.72626 21.0589 44.6087
CA -22.4324 -12.936 48.7297
CA -15.724 -9.23973 60.2076
CA 1.17824 -10.6859 32.5784
CA -23.8982 -11.255 50.4071
CA -18.0417 -40.9084 48.7172
CA 10.7075 10.3093 48.5504
CA -2.33032 -24.77 42.2184
CA -19.655 -27.1387 46.5338
CA -5.80123 15.1589 35.1131
CA -16.2389 -28.2508 53.2259
CA -7.27751 -38.7741 62.1742
CA -17.2897 -27.5232 58.8027
CA 4.59342 8.88773 42.0597
CA 15.8702 9.65541 36.1361
CA 10.5433 17.7467 35.2079
CA 6.21214 13.074 43.2681
CA -16.3522 -17.9559 40.1258
CA -7.73304 -32.6812 67.5262
CA 8.91367 -11.2575 33.6159
CA -12.3534 -29.3562 53.459
CA -9.93493 -25.2668 18.7731
CA -20.8777 -10.5513 55.2858
CA -13.5517 -52.2447 44.0057
CA -22.3965 -15.079 34.5717
CA 8.79245 -11.9602 29.4254
CA 2.6889 6.39872 48.8577
CA -23.1933 -35.5149 20.8377
CA -12.853 8.49118 32.4405
CA 3.85656 -34.746 47.9936
CA 21.9728 16.3708 88.9603
CA 8.29141 7.33499 59.0991
CA -16.4351 -29.9697 56.5926
CA 5.8437 -10.904 33.9587
CA -4.93475 -1.79126 30.656
CA -21.9919 -38.1792 49.4976
CA -3.39953 -11.1094 66.5761
CA -2.25329 8.96132 45.1302
CA -22.2821 -33.5903 18.8733
CA -14.7124 -15.5312 40.2742
CA -9.11482 -43.9842 69.1758
CA 12.1791 0.835741 53.9007
CA 5.11886 13.0982 49.2215
CA -18.2262 -17.5797 20.4535
CA 1.6374 10.4714 49.7082
CA -30.8247 -6.70702 21.1486
CA 4.65241 10.0011 37.3842
CA -23.0773 -14.337 39.7218
CA 6.49992 9.52535 57.2951
CA -7.64233 11.462 49.4642
CA -17.3082 -9.8803 58.0793
CA -8.21194 12.6154 33.7318
CA 8.291 17.5473 43.5783
CA -19.9728 1.06124 46.3759
CA -3.93737 -19.2243 35.084
CA -19.4269 -31.1015 23.3664
CA -19.9474 -21.616 36.3826
CA 3.45635 4.20536 27.163
CA 1.93137 21.2226 52.7985
CA 20.5215 12.8353 88.3061
CA 9.80859 -7.53468 19.424
CA 4.7979 4.27012 48.6551
CA 4.14616 18.1714 49.9566
CA -13.5436 -16.5412 17.4019
CA -4.01411 -20.8782 33.5733
CA -0.88553 -38.7654 58.1081
CA 6.59423 0.719527 68.3283
CA -11.6416 -15.3398 15.5802
CA 7.47065 7.32533 47.8998
CA 13.9409 0.749387 51.9894
