489

CA 11.3908 -9.22745 51.0977
CA -15.6868 -25.3364 32.8528
CA 19.6619 -22.4852 61.2854
CA -6.46557 -26.8465 40.112
CA -28.1123 -4.03648 48.8471
CA -18.5693 -14.2216 67.4413
CA 16.6202 -23.8327 53.8915
CA 8.37598 -9.54287 50.6157
CA 1.50822 35.8412 56.3935
CA -9.14254 21.414 34.7307
CA 4.53733 -27.5936 27.0946
CA -19.4002 21.3518 29.0895
CA 32.0531 4.41172 40.5325
CA -33.2378 -1.24994 42.5038
CA -4.11115 27.1753 26.3603
CA 26.8233 -15.3929 64.5729
CA -7.81483 -8.47915 77.8008
CA -0.931474 -25.1637 27.1326
CA 13.3783 -14.8422 23.0382
CA 20.9481 -4.44483 65.783
CA -22.0767 -9.62704 39.9593
CA 24.7272 -10.4473 61.7827
CA -28.0139 -1.75575 58.7395
CA 16.195 29.316 43.7121
CA -0.245808 28.7085 74.5409
CA -11.0154 -16.5331 18.6592
CA -27.6985 -9.41582 38.3971
CA -5.19094 -5.61783 17.9225
CA 18.6526 -25.5746 58.2979
CA -36.9632 -13.0209 59.947
CA 10.6499 32.5853 30.5313
CA -18.7036 -9.62707 44.1634
CA 27.4757 -20.6917 57.1375
CA 29.0067 -4.96868 61.4275
CA -30.1084 0.598673 54.9612
CA 21.2931 33.1242 47.6879
CA -12.5498 -16.9935 19.8938
CA -20.5752 -21.6906 51.6455
CA -3.16425 18.3855 15.5368
CA -19.9077 10.7786 55.7216
CA 11.9046 -19.1188 25.9437
CA 1.28366 18.9852 34.13
CA -4.71082 25.2908 72.277
CA 9.03964 9.30716 75.4135
CA -4.85615 -17.2928 50.5645
CA -20.8976 -25.8381 28.675
CA 8.93212 -18.9037 16.3988
CA -18.4406 -11.6486 31.2157
CA -2.79479 -23.157 25.2846
CA -34.7914 -0.691629 38.9127
CA 22.31 3.79273 34.4675
CA -14.9996 -19.0524 76.4844
CA -10.7001 -15.8611 69.6267
CA -33.8508 2.08582 43.1386
CA -4.80188 14.8067 26.4242
CA -7.68874 13.5179 13.2003
CA -12.7751 -20.0498 47.5145
CA 0.557898 16.5943 69.6512
CA -11.2971 -29.759 49.8532
CA -28.7241 24.5572 64.5875
CA 10.6182 -19.2096 73.5802
CA -27.8374 -4.94885 53.3359
CA -4.86147 -26.7788 58.0179
CA -10.539 -18.7557 50.3434
CA 6.16465 2.32194 35.5809
CA -6.4098 16.4138 15.1628
CA 23.8505 -24.6368 59.0165
CA 1.78742 18.1557 37.6471
CA 15.2262 -13.0721 27.202
CA -34.0725 -14.0698 57.5781
CA -5.01549 0.362563 41.4728
CA -11.8267 27.8411 55.3398
CA 19.2525 -21.1294 56.7535
CA -12.2016 -2.7587 47.2761
CA 25.695 8.85359 66.8938
CA 16.6946 26.128 63.4503
CA 4.17681 -19.7516 33.5592
CA -38.3887 1.88045 54.6557
CA 7.60001 -26.5683 76.2868
CA -31.1341 8.03576 52.8673
CA 26.0018 -29.664 58.7077
CA 5.56231 18.6311 31.89
CA -1.15343 -3.18584 83.6648
CA 16.7255 -15.0908 19.3672
CA 34.8183 -9.36774 46.3458
CA -30.5641 18.8356 28.9871
CA 0.606089 16.6782 72.1889
CA -11.4794 -15.5518 64.8547
CA -22.1185 14.6476 72.2427
CA -6.56039 -20.4287 65.0421
CA 12.7741 -26.2943 40.9562
CA 19.9369 19.4919 69.0137
CA 20.475 -28.0764 73.0287
CA 17.1908 -18.8452 76.3143
CA 16.0877 -13.3316 64.9691
CA 17.0546 -22.3666 73.6079
CA 30.199 3.21414 58.4754
CA 16.0061 -24.7031 64.4414
CA -3.77385 12.9544 14.6112
CA 18.2503 -24.7542 61.971
CA 34.6931 -20.1918 50.3344
CA -18.6547 -8.75627 83.3021
CA -11.7539 -17.136 36.7721
CA -8.25826 3.38303 28.6563
CA -4.31632 15.6118 36.8073
CA -2.92823 -21.6949 50.1012
CA 17.9604 -13.0001 88.7343
CA 14.3221 -19.4471 73.5787
CA 32.1411 4.94588 37.7711
CA -11.2405 -10.0493 73.7533
CA -17.477 -5.61976 44.6077
CA -27.1353 17.7724 31.0842
CA 2.92898 27.4347 24.9343
CA 14.1229 1.20869 23.0757
CA -14.1626 16.1173 53.156
CA -12.0116 -11.2895 22.8572
CA -30.8931 -2.33222 42.9741
CA 31.2065 8.01561 48.3266
CA 25.4747 21.8052 58.3984
CA 11.169 18.273 27.3707
CA -30.5496 10.2334 43.5633
CA -35.1907 11.0757 56.7112
CA 17.8972 -2.34976 77.5212
CA 8.18369 -2.90961 75.206
CA 17.2843 9.01819 83.6372
CA 18.2498 4.69617 18.501
CA -3.75242 -19.5074 49.2595
CA 32.2978 7.51837 60.0929
CA -34.8892 -12.5066 61.4253
CA 16.4555 -13.7039 25.8659
CA 31.9979 10.1585 34.1705
CA 5.12747 -1.897 63.2486
CA 33.2298 -18.2823 47.9519
CA 16.5704 14.3554 71.5054
CA -8.41647 -18.7286 50.897
CA -1.34103 21.2621 42.2286
CA -9.8799 -7.91013 52.9053
CA -35.4919 -11.8234 63.8694
CA -20.6578 5.0983 57.1688
CA 17.517 9.02244 17.2506
CA -27.3446 13.0407 32.6436
CA -9.18484 -26.0119 29.7853
CA 0.890002 -1.74375 22.8101
CA 6.23009 -1.63936 64.8371
CA 6.50633 -8.04436 48.4477
CA -10.0544 -23.8711 47.9312
CA 7.74941 4.3745 52.1791
CA 1.5238 28.4937 48.6682
CA -10.0111 -16.0376 26.5378
CA 3.75104 -17.2162 57.6086
CA -33.4241 0.775366 41.5726
CA -11.5867 14.4064 56.156
CA 0.129572 21.5968 31.1732
CA 6.81305 26.9403 34.9956
CA -19.659 -8.54928 42.2554
CA 13.5204 -1.2161 18.7911
CA -12.0181 -30.9004 54.7028
CA -17.1278 -27.2848 33.7416
CA 2.53039 36.5008 52.0616
CA -12.4671 -13.9526 28.9352
CA -8.52564 -21.9624 47.4135
CA -6.13298 -14.4921 57.6641
CA 1.72256 17.4867 66.7197
CA 2.09563 21.2616 33.4975
CA 1.96568 -2.77065 43.631
CA -2.64888 -22.3604 32.408
CA 7.81792 -4.63589 61.3818
CA -4.71238 -0.923792 43.8248
CA 0.199449 -10.3148 57.3321
CA 25.9707 10.7077 38.4528
CA 18.3733 -0.604091 57.0362
CA 17.5227 23.7717 61.5197
CA 19.1354 14.6545 75.0203
CA -1.00034 -6.3941 21.3244
CA 31.0387 -3.07807 60.4561
CA -2.42967 -11.3113 61.8394
CA -2.65565 22.1811 60.5252
CA -12.2571 -23.53 31.1845
CA 8.17605 -25.1279 45.3701
CA -4.67315 -26.3418 38.8799
CA 23.417 -30.3868 59.3113
CA 15.5697 0.708477 37.3691
CA 2.64369 32.4919 60.7
CA 22.2913 -11.106 18.002
CA -26.4049 6.3559 28.8154
CA 9.60546 27.7165 35.3716
CA -4.55673 26.4776 61.1375
CA -5.06441 -9.63742 63.6387
CA -8.09018 -26.3998 46.7867
CA -34.6434 -12.3277 57.8217
CA 19.2292 -14.1646 65.4772
CA 11.1211 -19.3992 48.5168
CA 7.15943 8.59067 33.4131
CA 13.5928 15.2293 73.0726
CA -15.5475 -26.1328 35.8786
CA 29.4365 0.144823 59.9854
CA 12.4331 2.48675 84.8501
CA 0.819501 27.67 76.9506
CA 0.599868 -27.7807 53.5774
CA 8.65181 31.8933 60.1194
CA 25.641 -12.0185 55.3304
CA -11.5433 -7.58739 48.7719
CA 14.151 -22.0047 57.7736
CA 0.0101069 25.243 74.0673
CA 24.573 -16.8067 51.3479
CA -18.5046 4.43399 57.3161
CA -24.074 12.3429 57.1152
CA 5.64814 -8.53985 64.7209
CA 15.354 -26.1275 45.798
CA -0.752716 -10.9036 73.2456
CA 31.5159 -2.81438 56.1795
CA -10.5756 -39.7713 43.2209
CA -34.8599 10.954 50.2988
CA 22.6615 -7.5533 61.6452
CA -0.0570181 -28.5022 77.2781
CA 8.30826 15.6031 82.4056
CA -13.9667 -18.8318 24.6251
CA 21.0067 -18.1936 75.8826
CA 3.16029 -4.94097 47.1128
CA -2.01048 20.1357 40.4698
CA 11.3882 -23.9631 54.8002
CA 17.247 30.2838 69.2397
CA 10.3027 3.28363 53.7967
CA -10.3724 -9.29699 35.5538
CA 2.79096 27.6751 64.6537
CA 10.8554 34.4313 31.4558
CA -2.01523 19.5561 35.0393
CA 5.53361 -3.67463 73.1478
CA -9.9938 34.1993 37.0114
CA 13.2783 -14.8805 74.8465
CA -0.174033 29.4179 23.8333
CA 18.1061 5.55558 20.5549
CA 13.114 17.9855 23.7797
CA 2.65045 -13.8699 58.8608
CA 14.4039 27.7171 40.7287
CA 32.4056 8.67164 30.2824
CA 12.7728 17.8389 74.8491
CA 14.0269 -22.8297 61.1341
CA -4.81849 -4.18082 74.1564
CA 17.9325 31.3354 64.7779
CA 1.38034 -0.65393 19.393
CA -11.4863 -10.1914 43.2573
CA -21.5886 3.02615 41.9375
CA 23.3888 -24.2935 69.5025
CA -26.969 12.2345 75.9359
CA -15.9745 -3.98908 45.5978
CA 11.6091 -6.48653 70.903
CA 5.78287 -7.2826 51.2664
CA 4.61356 20.1094 28.367
CA 18.762 -19.5674 61.0135
CA 4.60902 22.2783 23.704
CA 17.7438 -20.7897 77.6518
CA 18.2559 23.795 23.4692
CA 16.6178 -24.6939 44.7539
CA -9.5644 -28.9322 26.3356
CA -22.3311 9.48415 56.0918
CA -16.9309 1.84809 70.8639
CA -25.3433 -6.79245 54.8428
CA 14.1813 -23.7496 70.182
CA -2.2232 -28.4853 51.9156
CA 34.4072 5.60209 40.1282
CA 26.4548 -13.7314 65.8714
CA 24.5446 9.18059 40.977
CA 8.25492 0.325575 53.0424
CA -4.80487 18.2826 74.257
CA -25.2093 -12.0801 60.2968
CA 17.1813 -12.9284 63.4724
CA 2.89095 28.2069 43.5038
CA -10.5693 -13.8571 36.4863
CA 3.77938 -0.0115698 15.5457
CA -10.1631 -32.428 54.6755
CA -12.2823 -6.35047 72.148
CA 12.0426 0.0429447 51.7719
CA -10.3161 -18.3812 22.1615
CA -7.22335 -13.1929 57.0521
CA 0.373812 -11.3165 58.9769
CA -2.05338 -7.94283 13.9859
CA -13.4851 -3.35436 73.306
CA 33.7627 12.2001 28.5004
CA 10.6191 -4.47415 52.9278
CA 2.61064 34.4631 51.7072
CA 11.4945 -11.1754 64.5068
CA 25.0281 -17.4664 64.5395
CA 24.7318 5.17407 45.3977
CA -7.53366 -17.4469 35.1868
CA -4.46831 21.1067 71.0631
CA 23.0449 3.89525 53.1087
CA 32.9917 12.2811 58.7656
CA -33.654 13.5698 46.9919
CA -17.4183 -9.95158 79.2476
CA 3.06103 18.9793 34.819
CA -16.4879 19.6945 30.2511
CA 4.71901 32.4389 50.7648
CA -6.65807 17.8708 84.0817
CA -32.9846 1.53285 45.3801
CA -27.8542 -4.19659 50.7706
CA 2.12053 -4.04076 85.3366
CA -2.28271 -31.3847 40.1437
CA -2.88851 -12.965 51.8202
CA 16.4269 -24.484 42.9381
CA 10.2678 5.85399 79.8626
CA -6.66156 -8.8778 17.8817
CA -28.0972 10.4326 30.5829
CA -23.9513 10.0375 30.8515
CA 9.15443 4.47337 75.4435
CA 19.1148 -4.65384 26.555
CA -24.2618 -7.32638 35.517
CA -8.10315 -13.1895 52.9408
CA -11.7988 -16.7026 52.3769
CA 5.91854 24.9733 31.7978
CA -20.7616 20.29 24.7723
CA -26.7193 -27.6518 47.9108
CA 19.9634 9.50356 75.6597
CA 1.0809 6.65817 33.8917
CA 25.6225 8.9417 71.4595
CA -23.6054 -1.78673 67.381
CA 1.00492 9.7278 25.115
CA -12.8045 -1.92213 69.8121
CA 24.5061 -18.4385 33.6713
CA -4.9305 -37.2046 61.0764
CA -17.4557 6.94838 80.6293
CA 4.03751 18.4217 62.6897
CA -2.23375 -22.7105 35.1058
CA -6.35721 34.3277 35.1071
CA 0.790214 36.5826 58.2478
CA -19.3069 -10.9639 20.3569
CA -5.52755 -21.4778 32.492
CA -16.8579 28.8969 40.9171
CA -3.0896 33.0979 61.3617
CA -3.60517 -25.4258 54.124
CA -15.9035 -9.59622 46.3377
CA -4.94309 -31.0102 61.6451
CA 2.10823 -7.66852 65.7014
CA -2.80178 -19.5719 46.8357
CA -5.79357 -17.6398 48.4247
CA 7.09967 -3.9435 17.3864
CA -0.584065 23.6176 31.6351
CA -19.0391 10.6103 57.9562
CA -21.3946 3.12406 37.2416
CA 20.0434 -9.81055 44.1116
CA -16.3081 -10.4587 28.732
CA -37.571 -3.64543 50.6611
CA -14.9275 -6.56091 55.4625
CA 13.9287 -18.1484 26.5893
CA -16.639 25.4887 36.4252
CA -2.27993 -5.81724 11.5451
CA -17.4336 -13.4045 23.1325
CA 0.441053 -27.2303 71.1762
CA -25.6151 16.0234 31.7756
CA 35.931 9.48102 55.5056
CA 3.02108 -24.7555 63.8809
CA 16.6066 -13.0564 50.9682
CA 0.780302 -5.4673 81.1398
CA 2.11493 31.0628 52.6758
CA -36.7178 -23.5834 63.7864
CA 7.97637 -6.72836 68.8105
CA 4.21489 -4.64179 64.4533
CA -13.9156 9.79517 49.7784
CA 18.6297 -10.2588 30.843
CA -10.6252 -13.807 20.0071
CA 1.6362 19.8679 69.0531
CA -15.2917 -9.07332 48.3138
CA 36.2997 8.59692 58.4173
CA 28.9646 7.34847 35.7948
CA -38.0799 -4.44926 52.9815
CA 7.10337 -24.4087 63.0917
CA -1.06773 15.1277 37.8115
CA -15.5018 -29.6158 37.5722
CA 5.26526 13.1457 30.0706
CA -20.4782 5.74643 59.8143
CA -0.20645 26.4514 61.0011
CA 24.5106 6.15654 48.9482
CA -21.5137 18.6726 40.2343
CA 33.3293 5.30627 32.4942
CA 20.0193 -15.5683 72.7468
CA 34.125 -16.198 50.2598
CA 10.6063 35.2908 29.8101
CA 22.2468 -18.4873 54.7296
CA -17.585 -7.96356 40.5971
CA -28.2366 -0.408983 26.5738
CA 16.8556 -25.2404 72.5873
CA 21.3134 -25.6693 65.8991
CA 6.22968 16.813 82.1923
CA -2.83466 37.8133 58.1758
CA 2.22068 2.85757 19.6344
CA 3.41371 17.8536 36.9327
CA 0.133181 -29.2566 69.4224
CA 24.2155 3.6977 59.5028
CA 33.0423 -18.2923 50.5409
CA -28.4784 3.07174 76.6533
CA 13.0117 -19.9467 50.5592
CA 4.55742 -24.1228 62.5551
CA 6.94409 -1.05268 75.7207
CA 35.8978 -17.7107 50.6682
CA -16.3342 2.51475 72.4465
CA 20.1207 9.13133 80.2867
CA -11.2983 30.0746 73.8037
CA 7.36851 2.47895 33.7178
CA 24.4382 12.0771 70.6212
CA -19.4306 18.2731 33.1395
CA -2.50039 -24.0156 19.3318
CA -21.4365 17.985 50.0542
CA -13.9297 29.2816 74.348
CA -8.92641 -11.5427 75.4979
CA 4.48594 35.1708 45.5369
CA 35.3578 -17.5357 48.8255
CA -32.0742 9.51863 55.7715
CA -14.4467 -5.0736 57.9825
CA 15.9055 1.63998 40.3723
CA 7.83002 -18.7334 75.9318
CA 13.7434 -25.2874 56.8667
CA 13.2485 -12.8148 27.7754
CA 20.7953 -13.7905 32.8235
CA 20.5186 -24.3331 43.9187
CA 7.51497 -8.90451 52.7508
CA 7.33665 -20.2258 61.2779
CA -36.7859 -20.7798 66.1785
CA -30.5918 3.09423 54.6425
CA 26.3166 -16.5133 30.9587
CA -27.6888 -5.36385 59.851
CA -34.2374 11.7385 58.1741
CA -12.3252 -21.3974 20.6299
CA 6.77755 1.67322 53.8939
CA 3.50517 31.4058 48.0767
CA 37.7647 -8.4633 47.3832
CA -3.99924 -6.22783 16.5827
CA -22.5686 25.545 63.3772
CA -22.5488 19.2474 54.431
CA 25.6461 -5.85579 31.6707
CA -15.4592 13.1154 51.0231
CA 2.02306 1.52444 71.3074
CA -11.734 -23.2866 48.5101
CA 22.3318 15.4721 71.6909
CA -10.949 -19.0891 19.8661
CA -4.56996 -7.40093 62.4971
CA -37.3296 -16.5643 64.7243
CA 17.8878 -0.334732 24.1607
CA 19.4721 -12.0788 81.8162
CA 2.32657 -17.3558 31.6592
CA -13.8272 5.89901 74.6339
CA 17.4057 -24.2738 40.9855
CA 33.1949 6.70554 55.4986
CA -32.7246 -2.03825 33.1625
CA -28.0783 7.98721 51.0753
CA 21.8294 6.95273 24.6137
CA -26.7872 27.0462 54.7558
CA 9.97639 -6.89232 50.6955
CA -12.7698 7.98344 28.7769
CA -30.6711 10.6725 51.3427
CA -22.3036 23.8768 67.7146
CA -26.44 22.744 67.7184
CA -31.0088 0.903119 40.3397
CA -23.8232 -0.455783 65.9813
CA 36.4643 -19.5276 47.2089
CA -22.8807 6.3908 28.4695
CA 13.8623 15.4429 75.5563
CA 11.502 34.0484 60.6861
CA 1.78421 -12.7468 54.1182
CA 13.9595 -23.5125 74.5786
CA 4.42189 -15.429 30.6939
CA 15.5044 21.6464 21.596
CA -4.59353 -22.4593 30.2491
CA -18.6266 0.872208 39.077
CA -10.6018 -9.13082 40.0123
CA -0.389209 18.2411 31.5459
CA 13.9409 -16.047 27.685
CA -7.6983 -25.3096 31.013
CA -1.5282 13.0615 33.5597
CA 1.44041 -30.964 37.8097
CA -1.6951 -9.59978 66.4979
CA 0.712598 27.2838 75.149
CA -15.9296 -21.4212 51.1373
CA 33.3123 10.1658 30.7509
CA 9.09524 4.71836 73.0166
CA 1.76721 29.1835 73.8951
CA 2.26641 11.5299 73.365
CA -19.3825 -2.54643 41.8248
CA -0.956785 33.4946 59.2889
CA 16.2411 -1.6556 19.1507
CA -17.9309 -27.6134 39.5459
CA -17.06 -10.17 26.9475
CA -2.03101 26.9397 61.128
CA 12.7929 -18.783 75.7837
CA -15.173 27.3118 39.4252
CA -27.4221 -20.529 38.2592
CA -1.10393 6.18449 72.7123
CA -34.1003 -3.01826 42.1652
CA 5.8376 -3.81831 65.1966
CA 7.97949 -7.27407 15.8969
