489

CA 9.85066 18.3793 81.9811
CA -12.6452 -37.9135 64.4788
CA 7.59091 18.6135 73.5777
CA 4.04417 -29.992 34.659
CA 12.1354 25.5412 73.0833
CA -10.2815 -29.2666 54.0534
CA 17.4229 -7.51077 19.4503
CA 23.1589 1.15854 62.534
CA -12.7052 10.3594 44.4682
CA -4.0754 12.5517 69.6932
CA 3.75944 -15.6338 40.7562
CA 0.60011 -1.89644 40.9777
CA 9.42043 -15.3759 39.5409
CA 22.7943 -15.8002 63.6144
CA 18.3164 -10.4512 53.1086
CA 9.89817 -10.2109 49.8918
CA 26.3359 -32.4464 55.3281
CA 26.714 -27.7863 55.2541
CA -12.2325 -38.1077 58.7617
CA -6.31402 -18.37 53.4081
CA 11.8873 20.6848 64.7946
CA 17.6293 -1.826 64.0963
CA 15.8442 -14.7586 57.6632
CA 13.1031 -24.3694 53.6033
CA 12.1672 -11.3508 17.3582
CA 12.7803 22.9228 67.3532
CA 20.9761 -5.27802 49.1504
CA 1.01643 -33.1817 51.6837
CA 23.8257 -16.4866 59.0551
CA 21.9743 -13.1057 60.9624
CA 2.53218 -0.401169 41.5368
CA 16.5163 -2.8604 76.9247
CA 27.0497 -4.72655 70.5799
CA 21.3122 -3.38814 60.9488
CA -10.7123 2.78915 54.2533
CA -1.90586 4.02411 60.817
CA 6.12395 13.0083 89.6757
CA -16.9757 -3.26559 46.1311
CA 22.8068 -2.61024 39.4248
CA -22.3616 -9.46128 51.5694
CA 14.1111 -3.15386 46.9182
CA 19.6937 -17.4645 55.1038
CA 8.60923 16.9805 69.9824
CA -17.5958 -1.08302 45.0946
CA -19.3863 -1.21526 46.4151
CA 11.0801 -5.13189 81.1153
CA 2.78777 -4.33799 42.1975
CA 6.39688 0.530517 57.7019
CA 4.93393 -7.35104 70.8394
CA 17.6848 -12.6479 36.2907
CA 14.5353 -15.1506 23.8013
CA 11.2951 10.4448 89.8792
CA -8.28949 -37.4128 57.4759
CA 21.9217 -2.17755 53.5572
CA 10.8414 13.6344 85.8092
CA 24.3395 -6.08038 69.5086
CA 13.4504 -4.06584 68.042
CA 11.9906 -0.880281 69.1157
CA -4.63465 -0.742597 47.525
CA -7.04591 10.5069 70.8345
CA 6.24205 -22.9089 52.8184
CA 13.0967 -25.0559 51.0119
CA -0.319182 -17.2876 48.6909
CA -11.3304 -27.2809 55.8387
CA 14.672 -14.3627 54.8633
CA 29.5815 -11.2235 38.0643
CA -1.28567 -28.7169 30.9802
CA -8.48425 -29.5112 52.3925
CA 26.7321 -1.29387 65.9427
CA 1.54612 -17.1612 50.3658
CA 28.9405 6.38529 58.7258
CA 21.8067 -23.6554 56.2226
CA -1.25079 -16.8791 53.9501
CA 15.6254 -3.18951 67.2648
CA 4.08629 33.7165 71.9968
CA 4.10662 -5.88114 74.1073
CA 0.627058 -28.5611 48.5991
CA 19.537 -7.47838 50.6756
CA 5.98529 7.08906 73.3998
CA 5.34894 -11.39 55.2301
CA 1.00183 -15.9359 42.1865
CA 21.8992 -12.9108 17.145
CA 24.7506 -5.24397 27.8074
CA 17.3629 -17.7345 33.3308
CA 22.2489 -4.72029 69.3128
CA 29.3167 6.522 55.3611
CA 17.8526 -11.7321 22.9619
CA 12.0536 20.1791 80.0233
CA 24.461 -6.72956 38.8127
CA -4.7878 26.0506 72.4966
CA 17.0419 -25.3713 50.3449
CA 8.10291 16.0745 74.6506
CA -2.00003 9.2013 67.8654
CA -7.07409 -0.056614 49.21
CA 27.8044 -12.1703 35.9011
CA 13.1683 -3.30845 39.673
CA 17.6881 -8.45479 78.9786
CA 23.35 3.4453 56.1301
CA 1.79538 20.6095 58.9854
CA -0.543191 -2.91824 76.4046
CA 6.5632 -14.4438 54.9833
CA 14.6197 26.6775 70.2545
CA 19.3298 -14.3391 58.6972
CA -10.5188 9.93659 45.1667
CA 14.8015 -3.71693 75.15
CA 29.1503 -20.097 50.3716
CA 20.8691 -2.28378 49.809
CA 16.4959 -5.01639 37.1682
CA 17.4548 -16.6749 29.6324
CA 1.93017 14.6331 87.2777
CA 1.38789 21.4918 63.2249
CA 16.0014 -14.1327 23.1197
CA 24.2678 -1.7115 61.0592
CA 18.7999 1.26087 52.4055
CA 4.24008 11.4917 69.2427
CA 14.0972 -15.8352 17.1988
CA -6.28136 -16.0185 53.271
CA 0.393622 -3.11139 74.3747
CA 8.49705 -8.79165 72.5012
CA 11.156 -15.8697 60.096
CA 3.35319 27.5471 73.2637
CA 21.1374 -24.6576 51.1994
CA 5.76445 -9.70399 40.6399
CA -2.43158 8.03625 60.1104
CA 24.33 -11.1544 28.7407
CA 23.9609 -12.3767 35.1762
CA 17.5141 -14.2809 20.0985
CA -0.589725 0.693501 55.3209
CA 0.45195 -4.87574 43.7018
CA 11.2752 -5.69849 79.1448
CA 2.21014 -21.4508 40.8154
CA 9.8525 -5.49004 69.5831
CA 16.8344 -15.5184 17.8614
CA 30.0909 -18.7797 52.8797
CA 17.6238 -12.8061 18.9837
CA 3.14667 -12.0494 41.0508
CA 2.21607 12.1839 59.6538
CA 9.75271 21.7432 71.0334
CA -29.2332 -1.89924 43.8006
CA -5.70538 -34.8169 58.5921
CA 16.6254 -20.8216 62.432
CA 14.9433 -9.06281 65.4581
CA 27.1124 2.28257 54.3641
CA 6.16432 37.1302 76.3005
CA 7.69678 -3.99104 58.4859
CA -1.62914 -19.8 50.3906
CA 2.13374 9.38879 60.643
CA -6.72675 -30.4281 47.988
CA 5.17122 8.42942 72.4944
CA -21.9247 -14.2358 53.288
CA 3.81615 37.8658 69.6373
CA 18.41 -0.706602 47.5093
CA 2.36456 -14.4021 37.3653
CA -5.3449 1.86327 55.5437
CA 21.3496 1.19721 60.9687
CA -1.95365 -17.7463 47.1551
CA 16.8322 12.5502 79.5406
CA 12.1926 5.68394 81.8385
CA -5.43192 30.1167 34.3152
CA 17.1384 -8.38949 39.5599
CA 11.5878 10.0269 87.4018
CA -4.2381 -19.1781 54.0272
CA 10.5655 7.73533 78.0812
CA -1.63925 -14.6456 50.3852
CA -7.49693 -7.5842 46.5601
CA 18.491 -25.991 62.9375
CA 25.3445 1.49808 52.786
CA 17.4002 28.3906 71.9936
CA -9.78378 -40.2513 55.1741
CA 11.7391 -8.76024 70.1684
CA 17.2551 0.399051 40.7319
CA 17.7039 -3.96007 33.9788
CA 1.82925 -23.4149 41.0019
CA -8.03664 -37.8127 52.2721
CA -2.12638 0.0427032 54.6328
CA 0.660818 -0.390306 39.8767
CA -14.987 -3.85174 44.5067
CA 19.3489 -12.7355 21.3799
CA 7.92473 -7.29797 76.4119
CA 17.1576 -18.7399 57.1521
CA 16.8857 -24.7851 34.7944
CA 11.8963 10.1559 83.4901
CA 4.15327 22.7179 73.5881
CA 14.4766 -18.9479 53.3606
CA 19.3614 -7.80519 23.4563
CA 3.69397 2.58229 75.6986
CA 24.3038 3.92915 53.8207
CA 13.6114 -16.5743 20.7281
CA 8.66671 16.9959 83.1275
CA 26.0931 -18.1985 39.8639
CA -0.5572 -27.2714 35.0025
CA 22.4913 -21.8359 51.6939
CA 20.2858 -3.0249 36.8001
CA -2.26166 14.3626 87.1138
CA -3.13192 3.78962 67.6469
CA 14.3305 19.6494 76.7364
CA -0.433157 -21.4418 41.3591
CA -13.6522 11.7129 46.3784
CA 3.07008 -9.96673 60.3142
CA 20.1803 -13.8796 61.2897
CA 11.0626 -24.9159 57.237
CA 10.3922 -18.8782 53.8905
CA 27.4356 -18.5144 38.2539
CA -12.7113 -44.703 60.3489
CA -6.77314 -25.0752 49.2332
CA 9.94181 -18.4359 62.2327
CA -22.9601 -16.0507 57.3946
CA -1.93525 -23.3016 46.834
CA 6.84886 -5.14973 65.1663
CA 19.443 14.1501 82.9712
CA -27.8399 -3.93941 43.7183
CA -2.56921 -19.828 44.7935
CA 16.4087 -6.11319 78.7363
CA 17.5554 -24.0693 60.3154
CA 21.6221 -15.1314 58.9031
CA 14.8674 -12.8895 20.3621
CA -10.382 1.49859 48.0326
CA 5.04431 -25.8434 40.6901
CA 4.7506 36.3658 72.9396
CA 20.4588 -17.9374 56.6709
CA -1.6702 -1.63106 43.5903
CA 18.5485 -25.2807 57.3523
CA 18.7516 -0.816668 58.4479
CA 15.958 -4.69779 46.9338
CA -4.80875 19.0728 72.0417
CA -11.2766 -42.6853 60.2752
CA 15.0928 -15.1566 19.606
CA 13.0242 -13.6299 60.3261
CA 12.7359 -6.80185 66.3594
CA 17.1771 2.52933 53.5501
CA 4.09366 -0.0432454 42.5872
CA -3.77219 -2.70974 43.9194
CA 12.4711 11.5482 88.6512
CA 6.17515 -12.8189 63.1487
CA 26.3719 5.96368 49.3988
CA 6.6044 -26.7359 39.0203
CA 15.609 2.01228 77.0931
CA -15.7025 -1.90908 37.2851
CA 0.539937 -32.727 32.5947
CA -14.4011 -7.16595 47.2319
CA 2.01817 -17.7167 46.7918
CA 20.0824 -6.72413 54.3324
CA 4.50175 34.7184 74.0339
CA 16.0827 -6.61079 39.3097
CA 14.4146 -7.03518 69.375
CA -10.5087 -46.6715 57.1899
CA -0.998098 -16.1628 46.6979
CA 18.1881 -12.238 62.1147
CA 22.0977 -12.8303 22.4024
CA 18.576 -18.881 34.2669
CA -6.83797 -3.62764 50.986
CA -3.63662 -21.8736 48.2099
CA 20.2474 -27.7283 56.062
CA 3.38702 -1.55284 53.1666
CA -10.293 -39.1011 58.0314
CA 13.1209 -16.2447 58.9862
CA 19.0662 -4.78635 40.4665
CA 25.958 -19.837 50.1303
CA 5.36089 13.664 88.0013
CA -7.00053 -15.7482 46.3099
CA 24.0402 -8.80998 44.3074
CA 30.3448 -15.9434 52.5155
CA 24.8948 -7.75826 40.5489
CA -3.59704 13.1444 91.8231
CA -0.199509 19.5428 73.5026
CA 26.5906 -10.896 34.8168
CA -12.1672 -5.01263 50.6863
CA 20.0815 -10.6387 30.6508
CA -23.1895 -15.3278 59.1952
CA 15.297 24.3289 71.5207
CA 14.5472 -4.98296 44.0645
CA -2.35031 -30.5418 48.4573
CA 22.354 -17.8526 54.2729
CA 24.6254 -8.42694 30.3314
CA -1.46802 -0.257281 42.419
CA -1.62609 -28.2126 33.2877
CA -9.17033 14.7543 70.4299
CA -7.91745 -12.0874 44.2939
CA 17.3451 -10 18.3085
CA 6.12772 19.2402 76.0926
CA -20.7768 -8.23717 48.6555
CA -5.30258 -37.1483 61.0666
CA 25.0651 4.45711 51.1094
CA -8.90182 -4.71943 44.5586
CA -19.7185 -6.68652 45.8138
CA 16.0125 -4.22662 81.5507
CA -2.88372 -5.16042 73.4978
CA 9.78368 20.9947 73.5148
CA 19.8681 -19.0629 32.0233
CA 8.65608 24.5002 72.2012
CA 14.1045 -5.21226 66.6718
CA 4.59245 -11.567 38.7052
CA 1.20193 -27.9426 17.3302
CA -1.2619 -3.02901 40.6681
CA 12.5407 -20.0881 58.8321
CA 18.4796 -8.72032 21.8551
CA 2.52132 -7.82639 72.0963
CA 7.31899 -10.643 48.2054
CA -0.542954 -25.3045 46.8113
CA 20.0663 -1.8784 55.0723
CA 0.156577 31.6523 74.1652
CA 2.75443 -16.9855 42.797
CA -2.94279 -18.1799 42.0817
CA 2.7549 -0.292769 39.5028
CA -5.50125 -0.0113434 55.5333
CA 20.4365 -2.48418 41.1118
CA 12.4805 -5.84961 40.8109
CA 16.1985 -13.6381 17.6906
CA 22.4817 -2.16691 46.4983
CA 5.70171 29.8742 69.8938
CA 20.0371 -20.7561 34.782
CA 19.7331 -11.5188 57.7846
CA -15.3177 -0.119959 43.4806
CA -7.11126 -3.5654 52.8455
CA -13.7262 -6.57934 42.2341
CA 10.7726 -17.2566 66.419
CA 21.9662 -8.61863 35.46
CA 12.583 -12.4746 22.892
CA 9.24199 17.6435 85.7456
CA -19.4453 -13.3094 57.8089
CA -21.3347 3.09565 56.8777
CA -26.012 0.306448 44.4447
CA 13.4161 -23.0367 54.9907
CA 10.7884 -3.41656 68.0775
CA 2.52981 11.6905 64.4461
CA -14.7431 -0.296452 40.88
CA -4.79091 4.22892 57.7974
CA 16.8173 2.18657 51.5173
CA -0.260151 -26.9942 51.5672
CA 29.4481 -8.86719 52.5783
CA 11.6731 -11.4544 59.1836
CA 26.393 10.1658 53.5845
CA 17.6008 -6.59787 35.9134
CA 31.5743 -9.84266 39.0154
CA 3.25853 -18.9135 42.8606
CA 23.3877 -23.8754 49.8562
CA -0.0462856 20.3072 71.4499
CA 22.2747 -8.66224 49.226
CA -4.50608 -32.4101 55.4163
CA 15.6339 -26.9208 63.0198
CA 14.6478 -20.7814 34.396
CA -3.69898 10.3501 67.2395
CA 24.2208 -17.1266 55.4367
CA 24.3771 -1.53393 53.6729
CA -14.0771 9.06861 41.887
CA 23.6987 6.40026 65.0144
CA 14.7646 17.3277 77.3712
CA 11.6962 -10.4241 49.0239
CA 22.6696 -29.8148 55.4766
CA 7.17175 10.2971 69.3917
CA 3.21294 -3.09616 75.6573
CA -4.69397 -20.838 56.2601
CA 0.741007 6.64425 65.777
CA 26.7136 -18.1216 53.5325
CA 14.7826 6.36215 80.0072
CA -3.98175 -8.18518 54.8381
CA 3.88638 -4.85098 66.2687
CA 8.64322 -13.3268 51.2183
CA 4.37378 13.3802 69.8305
CA 24.2072 -8.71166 51.5829
CA 47.404 -11.2902 62.5214
CA 17.4006 -12.0249 21.0047
CA 17.1379 -13.5594 58.361
CA 19.2438 6.26896 59.2063
CA -1.01388 15.5322 73.1429
CA 0.564253 6.94889 78.9225
CA 2.03313 4.84212 54.4328
CA -8.94988 5.22659 53.7149
CA -17.2675 2.37141 44.305
CA 1.08929 -18.9868 49.9976
CA 5.77256 -8.78401 63.9217
CA 9.01286 -13.2673 39.9965
CA 1.77044 28.8286 72.9359
CA 15.1454 16.3301 74.3222
CA 27.1723 -5.87164 43.9675
CA -22.8901 -7.83598 45.3914
CA 22.9445 -0.791255 56.0385
CA -3.85408 -20.9267 43.9308
CA -1.34372 5.16642 62.1251
CA 18.365 -7.73963 63.1814
CA 19.6188 -25.4065 53.1881
CA 16.6106 -25.5247 57.1064
CA -4.82074 -20.4579 52.5667
CA 2.15681 9.76489 69.9986
CA 4.30776 34.5702 69.1456
CA 10.3665 -0.931026 68.1959
CA 1.68918 -20.2916 46.6925
CA 19.079 -16.0281 61.1432
CA 0.167253 -20.6195 48.3569
CA 22.9369 -21.1276 58.7911
CA 16.5661 21.0558 64.9177
CA 16.7761 -7.10551 41.302
CA 9.124 13.0548 68.1134
CA 0.672766 -24.1015 16.2426
CA 14.3841 27.2557 72.565
CA -8.48478 1.06245 49.4238
CA 26.2482 -13.0086 27.2102
CA 0.895711 2.59643 57.2248
CA 15.0025 -17.8541 48.6326
CA -0.713031 -8.64816 54.7246
CA 15.2496 -14.8501 62.4133
CA 2.21008 0.729838 57.0674
CA -9.01376 14.6974 68.4883
CA 13.1556 21.9851 76.1249
CA 14.7812 25.3592 73.2976
CA 13.0638 -16.4982 51.1784
CA 4.82747 -28.7378 37.3401
CA 11.0805 17.2425 84.8558
CA 1.25095 -2.61587 44.1031
CA 21.5658 -0.436167 59.861
CA 17.8839 15.7099 78.6358
CA 7.33004 23.9853 67.3632
CA 17.3516 -21.2612 55.8176
CA 2.16743 -20.3962 43.449
CA -2.68904 -7.82189 52.9005
CA 19.8987 -6.98762 35.1544
CA -13.5951 -0.775906 50.4288
CA 12.7364 -19.1321 24.4036
CA 25.3412 -1.44439 63.092
CA 21.446 -8.71352 21.9229
CA 6.17009 -19.5142 53.6162
CA 7.6183 19.493 81.3997
CA 0.545517 8.43443 61.3914
CA 17.4904 16.7345 86.7494
CA 26.8313 -15.2342 41.0725
CA 17.0689 -21.8422 58.3713
CA 10.2538 -14.3359 61.4981
CA -5.81025 -0.97952 45.4671
CA 19.3682 -23.7628 34.3757
CA 15.2428 11.183 82.8553
CA 13.9307 -22.0176 59.3079
CA 27.1426 8.97528 52.0597
CA 5.7654 -20.0536 46.2755
CA 16.8129 -13.0661 56.2839
CA 14.2982 -12.124 16.8782
CA 8.37728 12.1647 78.6342
CA 18.4062 -12.734 57.1677
CA 24.3949 2.47954 63.1651
CA 10.6582 -17.7603 46.2191
CA 12.0878 -24.0272 55.8786
CA 10.5964 20.3252 76.3857
CA 16.4328 -24.4987 55.2736
CA 20.6575 -12.1121 63.3315
CA 2.88047 -2.9623 73.2561
CA 6.3105 -3.85039 75.3394
CA -0.720127 -23.2534 50.2133
CA 17.9046 -22.3537 53.9175
CA -21.28 -6.94435 42.6444
CA 19.5062 -1.16287 35.5734
CA 13.4523 -18.0531 63.5236
CA 9.74768 -7.36186 41.4378
CA 10.6969 -18.8832 58.8003
CA -2.78843 7.12003 62.5791
CA 15.0849 -12.3965 56.1877
CA 23.1613 -3.39409 42.494
CA 14.6836 -13.2319 59.6298
CA 5.90995 11.4508 86.9073
CA 20.1284 -16.0331 37.5472
CA 18.7869 -24.6093 51.4378
CA -4.24352 23.1666 69.9675
CA -16.3105 -0.481871 46.4894
CA 9.10406 18.6781 76.7998
CA 12.8795 -22.3819 53.2767
CA 0.251906 -17.4105 45.7963
CA 19.346 -0.730373 71.3526
CA -1.30107 -3.20962 73.1876
CA -6.63541 -1.79843 40.8183
CA -1.28222 -23.9287 54.4767
CA 14.9672 20.3006 78.9463
CA 5.48415 -1.70732 73.6317
CA 5.7801 -10.992 68.1782
CA -13.6925 3.10389 66.7691
CA 6.19194 8.72406 88.8218
CA 3.09928 -2.01012 40.0203
CA 23.3775 -11.2754 22.5131
CA 15.876 -5.00945 77.3844
CA 20.188 -11.1645 37.2327
CA 25.6367 -5.41166 44.7986
CA 22.7684 -17.3353 47.114
CA -0.433701 -29.5431 46.4916
CA 29.0218 -2.76515 72.2705
CA 3.37591 14.3073 78.8575
CA 7.46878 -17.8837 46.9228
CA -8.65121 -39.1115 56.3517
CA 6.51587 -26.5123 36.6044
CA 14.4645 -1.79359 53.4351
CA 20.1326 -17.1032 53.1513
CA 16.6717 -1.37691 55.7757
CA 17.1228 2.32394 56.9524
