489

CA 16.1512 -22.3377 33.9263
CA 27.8185 -17.0792 53.9694
CA 11.8686 -17.1228 63.744
CA -24.0156 -0.0885125 54.0114
CA 12.1354 25.5412 73.0833
CA 12.9323 -2.7055 35.3417
CA 27.9694 -22.3331 57.6711
CA 11.6746 -2.34671 72.224
CA 7.53984 -9.28203 54.2898
CA 21.7466 6.63445 57.615
CA 13.4362 16.0737 75.683
CA 22.9407 -12.1806 70.8139
CA 8.5385 -6.73773 80.631
CA 22.2657 2.05051 50.6014
CA -9.22282 16.7662 68.7849
CA 15.3087 -14.8444 53.5121
CA 14.1828 30.4281 71.1513
CA 3.46937 1.52546 54.3955
CA 20.5804 -25.3121 52.7468
CA -6.31402 -18.37 53.4081
CA -6.00662 -35.3193 60.9326
CA 13.6975 -14.8395 32.6613
CA 15.8442 -14.7586 57.6632
CA 13.1031 -24.3694 53.6033
CA 12.1672 -11.3508 17.3582
CA -1.47265 13.6369 63.2474
CA 12.9895 -16.4612 39.8509
CA 3.07452 0.610556 78.2173
CA 23.8801 -13.2826 50.5196
CA 21.9743 -13.1057 60.9624
CA 25.5047 8.00441 51.2063
CA 15.6545 -17.0771 61.5655
CA 5.68687 15.9901 81.8186
CA -2.87674 -16.1814 50.632
CA 7.05437 -22.0113 54.2587
CA 7.4463 -0.325621 56.1231
CA -14.5114 -5.72799 46.4706
CA -5.78702 -5.68506 45.5855
CA -12.5475 18.9568 72.8992
CA -22.3616 -9.46128 51.5694
CA 35.3969 -26.5989 58.3871
CA -14.6507 -35.3776 61.1569
CA 2.24146 0.658662 60.2481
CA 23.3496 -12.2501 39.2286
CA -6.1039 -38.0398 60.9618
CA -17.4704 -2.89648 42.294
CA 2.78777 -4.33799 42.1975
CA 23.0392 -27.8179 54.5433
CA 19.4823 2.60571 55.8462
CA 23.3908 6.27308 52.7003
CA 2.21501 10.0942 83.1684
CA -9.16574 0.0903734 52.7227
CA 8.28106 25.1052 84.6152
CA 0.438669 -29.509 31.3358
CA 29.271 -3.7659 67.2542
CA -12.2746 -9.23284 47.8248
CA 3.76967 4.28735 51.5257
CA 11.9906 -0.880281 69.1157
CA 12.007 -11.3853 46.8438
CA -3.7887 -18.5522 50.9485
CA 3.8582 -5.73201 56.0698
CA 4.62494 -21.2927 52.4824
CA 9.94257 -13.6366 17.0643
CA 17.5687 -12.4414 38.8334
CA 13.8526 -19.5008 67.7955
CA -10.9795 -41.6246 51.9006
CA -15.8183 8.8252 47.0857
CA -9.62099 -35.2689 48.159
CA -6.99735 -1.99628 75.5019
CA 1.54612 -17.1612 50.3658
CA -8.37876 -39.1293 50.6359
CA 24.7487 -26.1206 53.8177
CA 10.6278 -21.3352 55.4803
CA 15.6254 -3.18951 67.2648
CA 27.4465 -3.69182 68.3621
CA 12.2861 -25.7364 54.7046
CA 19.1262 -1.49032 74.9401
CA 14.6918 -13.2279 35.6793
CA 5.98529 7.08906 73.3998
CA 5.34894 -11.39 55.2301
CA 6.82577 -14.8298 63.6336
CA 21.9312 -17.4803 50.2902
CA 24.7506 -5.24397 27.8074
CA 16.201 -29.1378 51.2067
CA 22.2489 -4.72029 69.3128
CA -12.2786 -34.49 49.2249
CA 20.77 -15.901 34.7154
CA 25.7459 7.34182 45.1348
CA -12.349 12.4364 41.158
CA 0.512868 11.0888 67.9084
CA 15.472 -25.8991 50.3063
CA 17.6616 -2.07672 35.6065
CA 19.0577 -18.8519 53.0719
CA 15.5639 -2.85467 81.7815
CA -11.0392 19.1397 64.812
CA 18.7429 -18.528 56.2175
CA 24.8346 -11.9437 27.5427
CA 23.35 3.4453 56.1301
CA 1.79538 20.6095 58.9854
CA 10.742 -3.37899 73.8352
CA 31.1612 -4.48352 61.4549
CA 18.3498 -1.31342 77.5765
CA 15.8061 -20.8609 31.0353
CA 8.93112 -7.78179 77.8194
CA 11.606 24.7037 75.9211
CA 4.1366 25.3252 71.4984
CA -17.0757 12.7009 42.7864
CA -14.5544 0.620572 49.6318
CA 0.404401 1.44437 75.0007
CA 25.236 -2.74776 45.8395
CA 18.3569 -19.3532 28.7412
CA 1.60315 0.39927 54.1215
CA 23.732 3.06027 52.0666
CA 18.7999 1.26087 52.4055
CA 19.8455 -7.63225 38.8858
CA 14.0972 -15.8352 17.1988
CA 10.6902 -6.25244 35.2989
CA 0.393622 -3.11139 74.3747
CA 8.49705 -8.79165 72.5012
CA -6.77076 -37.2739 58.7059
CA 18.3114 -16.2655 61.559
CA 17.0615 -19.9569 36.159
CA 10.8037 13.2122 85.3777
CA 26.9156 -10.9478 68.7814
CA 21.0957 -28.0613 52.3888
CA 18.6239 -15.0934 56.4413
CA 17.5141 -14.2809 20.0985
CA -11.3768 17.4412 68.8966
CA -6.49966 -5.57915 73.5108
CA 11.2752 -5.69849 79.1448
CA 16.6541 20.0294 88.1186
CA 3.76305 -6.79004 81.4491
CA -6.40424 -30.5096 49.7975
CA -20.0229 -3.88083 41.662
CA 30.2855 -26.8331 55.4923
CA -10.4875 -36.2843 55.8837
CA 4.09414 -6.96223 77.394
CA 9.75271 21.7432 71.0334
CA 19.8675 5.48509 62.6982
CA 14.5739 11.8029 75.899
CA 12.5933 -25.3882 35.1969
CA 21.3037 -11.0959 65.9884
CA 21.4687 -14.1849 44.1914
CA 27.8786 -6.6381 71.9527
CA 19.766 -22.3652 52.1794
CA -1.62914 -19.8 50.3906
CA 22.7002 -16.8739 62.0857
CA 12.9541 19.1652 70.7723
CA 26.0499 -20.267 56.9856
CA -21.9247 -14.2358 53.288
CA 15.7044 10.7422 78.1657
CA 18.8551 4.27844 71.4469
CA 3.11488 -17.2987 64.4375
CA -8.64087 -43.9082 55.4126
CA 21.3496 1.19721 60.9687
CA 15.9464 11.6676 87.417
CA -7.09521 -7.81643 49.5617
CA -8.3907 -5.96159 54.7854
CA 11.9315 -19.8472 53.516
CA -2.57362 -27.2184 17.0902
CA 11.5878 10.0269 87.4018
CA 22.7335 -3.0534 73.8291
CA 10.5655 7.73533 78.0812
CA 15.6764 -11.6837 21.8006
CA -7.49693 -7.5842 46.5601
CA 1.25939 -1.02577 44.9486
CA 25.3445 1.49808 52.786
CA -5.62147 -21.8685 54.4289
CA -9.78378 -40.2513 55.1741
CA 10.1588 18.3559 81.2884
CA 14.4669 -10.7537 54.5297
CA 20.5462 -27.8095 28.6672
CA 0.0939991 -0.66587 60.1017
CA -8.03664 -37.8127 52.2721
CA 23.4426 -15.8886 64.3619
CA -11.2025 -27.1811 53.3142
CA 20.2294 -23.0614 49.4794
CA 0.712926 12.5366 63.1634
CA -12.3267 0.292163 54.9323
CA 4.32318 8.08154 80.2916
CA -14.3305 0.455994 45.4542
CA 27.3868 -7.27331 67.4242
CA -11.1262 -38.9589 54.6203
CA 17.6572 -17.7356 54.7251
CA 1.50266 0.579297 58.5127
CA 17.0513 -21.6998 50.5309
CA 19.7723 -8.7258 73.1233
CA 10.6365 -21.7809 47.9651
CA 3.25784 7.89967 82.2966
CA 3.67968 -14.5882 51.7008
CA -0.5572 -27.2714 35.0025
CA 22.4913 -21.8359 51.6939
CA 1.94485 -23.1831 19.2396
CA -2.26166 14.3626 87.1138
CA 31.0031 -0.845328 70.1975
CA -2.3835 -36.2763 62.1891
CA 25.9273 -3.06335 64.2853
CA 12.4388 -18.1572 65.4116
CA 4.12632 -36.2186 34.9776
CA -2.91803 7.38928 66.0471
CA -6.81146 -14.1306 39.4648
CA -1.62773 -5.90357 73.4461
CA -10.2446 -32.5354 52.7242
CA 19.3392 -18.5784 61.7872
CA 17.6111 7.04267 80.978
CA 2.12615 5.23964 71.692
CA 1.19587 -10.0556 40.2321
CA 16.6658 -13.0456 16.057
CA -9.75206 14.2503 70.7675
CA -8.69499 -3.52898 53.2795
CA 18.029 -25.8984 37.0633
CA -21.7221 0.258119 51.3493
CA 17.7827 -2.48818 75.8187
CA 13.3038 -5.01002 69.2389
CA -2.36079 -23.8173 14.0422
CA 14.8674 -12.8895 20.3621
CA 2.14331 -13.7523 38.5644
CA 14.673 -3.52766 36.1474
CA 10.848 12.5946 76.7852
CA 13.6982 -21.495 31.9565
CA -19.2639 14.3642 41.0871
CA 28.4511 -26.5775 52.3336
CA -5.35199 13.4636 70.6945
CA 15.958 -4.69779 46.9338
CA 21.9632 -6.26147 64.5092
CA 17.9669 13.1596 81.5485
CA 3.70761 -7.82294 39.8753
CA 20.7517 -13.0495 36.4937
CA 3.93972 6.704 72.1208
CA 16.3523 -13.0723 62.985
CA 25.6731 -16.0036 33.5706
CA 5.92512 11.5357 84.2992
CA 11.6918 -20.7541 36.093
CA -9.35579 -16.9105 54.0881
CA 4.78526 -1.49556 58.6025
CA 16.0383 -26.056 53.8335
CA 0.92958 -7.92674 41.1423
CA 1.79545 -4.93947 81.4433
CA 18.0077 -15.8464 33.5955
CA 18.9149 -7.06485 78.581
CA 2.01817 -17.7167 46.7918
CA 27.9582 -5.1869 66.5259
CA 13.5388 -17.8442 35.6705
CA -1.57536 -25.251 31.52
CA 14.4146 -7.03518 69.375
CA 16.6732 -14.5418 38.8827
CA -9.55804 -38.9219 46.2865
CA -10.9648 18.7582 62.5968
CA -10.4374 -40.1581 61.9129
CA 10.3184 10.8921 66.3387
CA -0.361328 9.79573 80.6386
CA 25.0588 -27.9614 50.9822
CA 21.336 -15.0573 46.12
CA 12.5512 -15.1911 57.9354
CA -10.9037 -33.678 51.076
CA 9.4447 -1.52029 66.9136
CA 26.119 -3.5511 24.8919
CA 25.958 -19.837 50.1303
CA -13.1299 -32.2608 51.2526
CA 7.93423 28.75 73.4343
CA 24.0402 -8.80998 44.3074
CA 17.5705 -12.8758 56.4495
CA 9.57096 -1.95736 71.4722
CA 9.20307 23.6263 67.5964
CA 22.5211 -7.228 29.8035
CA 23.8917 -9.21017 69.3635
CA -6.09786 -1.63525 55.0988
CA 31.4936 -15.2841 62.7495
CA 20.3078 -17.7625 55.5024
CA 1.48396 24.0107 68.3041
CA 8.23573 -5.36373 79.1993
CA -2.35031 -30.5418 48.4573
CA 1.60399 -23.5166 43.8616
CA 24.6254 -8.42694 30.3314
CA -1.46802 -0.257281 42.419
CA 11.7188 19.6713 88.3563
CA 5.98869 -9.26938 74.9145
CA 14.9461 -16.8372 34.4929
CA 1.97391 11.3564 77.1584
CA -4.82477 -20.074 54.8428
CA -20.7768 -8.23717 48.6555
CA 20.2959 -12.8883 40.8407
CA 14.0492 -24.7312 56.2762
CA -2.2007 -23.4874 44.425
CA 14.7476 -16.192 51.1586
CA 29.6812 -14.6413 56.9279
CA 6.02941 14.1774 83.6099
CA 5.07103 -4.53178 40.061
CA 18.4082 2.58846 72.5927
CA 16.7248 1.42376 68.3442
CA -0.133148 27.8937 71.3615
CA 4.59245 -11.567 38.7052
CA 20.1746 -0.225145 29.3888
CA -1.2619 -3.02901 40.6681
CA 2.1022 -34.4491 36.8779
CA 15.2484 -18.626 56.109
CA 24.8932 -19.9411 53.2205
CA 8.87659 18.4651 72.8492
CA -0.542954 -25.3045 46.8113
CA 9.9356 21.1899 76.8759
CA 16.6455 -16.8559 20.9317
CA 20.7239 4.59322 47.6267
CA -8.63354 -41.5222 56.9965
CA -0.76565 -30.0365 37.7933
CA 9.69568 -25.8124 52.6677
CA 33.8652 -25.9646 51.9882
CA 12.4805 -5.84961 40.8109
CA 0.450826 30.3027 76.9487
CA 1.16735 -12.2345 39.3448
CA 3.01642 17.4945 81.304
CA 20.0371 -20.7561 34.782
CA 10.033 0.91988 74.4531
CA 5.50069 -3.59969 46.1746
CA -20.469 -3.0704 46.1874
CA 31.9342 -26.5462 57.1073
CA 2.21243 21.7178 55.3648
CA 6.04827 -24.3179 43.4963
CA 6.93401 21.8338 82.8629
CA 20.3141 -12.8908 27.2924
CA 22.1959 3.87143 50.2247
CA 20.1064 -10.2162 40.7573
CA 28.8192 -15.3897 60.3313
CA 13.4161 -23.0367 54.9907
CA 22.6255 8.45867 53.8661
CA -11.2518 -36.247 47.3316
CA -14.7431 -0.296452 40.88
CA -4.12694 -4.46418 40.8547
CA 25.6097 -23.7474 54.4504
CA 5.02036 11.4044 69.2196
CA 25.3343 -8.88472 28.5812
CA 10.5591 -14.403 19.243
CA 16.564 -1.52474 64.3881
CA 24.3988 -21.4977 49.9996
CA 8.35829 -25.2723 36.078
CA 8.8307 -19.0252 43.7436
CA 23.3877 -23.8754 49.8562
CA 8.08251 -14.6473 41.805
CA -9.36694 18.1579 70.9542
CA 26.5927 -9.32147 30.2945
CA 18.8842 -13.2247 24.8793
CA 14.6478 -20.7814 34.396
CA -3.69898 10.3501 67.2395
CA 24.2208 -17.1266 55.4367
CA 4.54933 13.0069 78.5002
CA 1.07224 -35.713 35.3852
CA 23.6987 6.40026 65.0144
CA 14.7646 17.3277 77.3712
CA 11.6962 -10.4241 49.0239
CA -24.83 -6.8844 48.5216
CA -3.61291 -17.2149 52.3118
CA 19.8945 -4.31137 29.0628
CA 11.3121 16.2268 81.7734
CA -8.7639 -16.1161 52.5449
CA -8.54565 -37.291 49.8781
CA 22.3913 2.79361 60.0947
CA -10.5558 -41.3458 59.0741
CA 6.45052 -8.34396 77.5011
CA 19.0179 -0.109308 64.4577
CA -8.58091 -41.0886 59.9598
CA 15.7482 -11.666 19.0586
CA 3.69316 -13.9506 43.3104
CA 3.85042 -24.8378 42.2819
CA 24.6021 -15.1756 26.8206
CA 2.45351 6.08716 76.4514
CA 9.81367 4.91343 63.4746
CA 15.7896 -28.4607 56.7487
CA 21.9782 -0.0552742 46.0639
CA -4.66384 -2.34005 74.4086
CA -17.2675 2.37141 44.305
CA -0.126181 22.8746 72.0534
CA 27.197 -8.93151 74.9507
CA 4.49297 -14.7479 68.0449
CA 19.3953 16.4105 72.7036
CA -18.6117 3.11046 47.8189
CA -6.328 15.8533 69.6442
CA -2.91925 -3.8305 42.3779
CA 25.3585 -25.5173 50.2373
CA 29.9603 -11.3139 56.9673
CA 1.1823 -21.02 43.6976
CA -26.9766 -5.33208 51.3237
CA 9.87025 -20.6571 45.6788
CA 21.4614 1.2738 57.693
CA -4.82074 -20.4579 52.5667
CA 2.15681 9.76489 69.9986
CA 0.982502 9.46289 67.2688
CA 15.7629 6.00102 71.625
CA 31.9519 -5.69515 67.2076
CA -8.58755 -34.8807 50.6641
CA -2.12209 1.5404 61.5498
CA 7.94315 21.342 77.3685
CA 16.3362 -3.95123 76.4506
CA 10.9283 -5.60752 73.096
CA 5.43435 1.59179 78.2167
CA -2.08531 17.9423 50.9034
CA 0.920739 3.54268 75.3384
CA 14.4435 -1.35843 37.1888
CA 24.2148 -31.7189 49.8011
CA 13.9759 11.2423 87.6151
CA 9.30707 0.519296 55.7664
CA 1.87866 -18.4508 45.0585
CA 10.6147 -17.0613 61.8905
CA 10.3674 -14.669 57.3482
CA 2.7144 6.95211 78.2386
CA 3.48802 -26.3731 35.1065
CA 6.58795 19.4534 79.3864
CA 7.41977 -31.9084 34.7064
CA 24.5005 -10.0254 41.4767
CA 11.0805 17.2425 84.8558
CA -5.31127 -23.4146 59.0172
CA 8.43739 -18.5798 50.8231
CA 17.8839 15.7099 78.6358
CA 6.16051 0.011461 58.5883
CA 5.13868 11.8259 60.6253
CA 27.048 -15.0014 63.9644
CA -11.4099 15.7225 72.2561
CA 3.62461 5.57875 73.8308
CA -13.5951 -0.775906 50.4288
CA 24.929 -12.6671 35.2478
CA 28.9242 -0.30926 63.8101
CA 19.2938 -8.78391 36.078
CA 22.4612 10.527 64.7775
CA 21.0609 -17.9436 33.8476
CA -3.65378 1.32231 39.4161
CA 15.5257 -20.5713 51.7494
CA -10.3453 -34.07 60.6245
CA 18.3248 10.0834 54.1703
CA 10.2538 -14.3359 61.4981
CA 3.73871 -0.935784 43.1732
CA 19.3682 -23.7628 34.3757
CA 20.5672 -15.6468 63.9007
CA 27.0369 -0.250503 65.9563
CA -0.340947 -6.49848 83.4515
CA -3.21687 -13.8737 43.5098
CA 11.8148 2.10609 51.1953
CA 13.2907 -14.6055 54.8622
CA 26.1038 -8.69241 43.9399
CA -1.25847 -15.0981 42.3893
CA 9.90786 -22.7299 44.012
CA 27.707 -25.31 56.6598
CA 8.71294 -18.049 52.6666
CA 15.8913 10.0201 80.9069
CA 26.584 0.668469 67.6546
CA 24.6944 -15.1787 46.0574
CA -0.740815 -6.10784 77.0357
CA -2.47722 -26.2448 26.9168
CA 10.8991 -7.31931 44.3406
CA 17.9046 -22.3537 53.9175
CA -7.54482 1.70286 56.2313
CA 11.8108 21.0789 80.6574
CA -3.58389 -39.6881 57.4327
CA 9.74768 -7.36186 41.4378
CA 3.17197 -16.5108 41.0239
CA -2.78843 7.12003 62.5791
CA 23.6405 -8.41195 41.1969
CA 25.5036 3.68415 53.1017
CA 14.6836 -13.2319 59.6298
CA 13.4137 -24.5459 49.4988
CA 20.1284 -16.0331 37.5472
CA 19.2858 -19.6382 46.8285
CA 15.9518 -21.4041 36.3649
CA 20.1446 -21.0016 56.917
CA 11.7379 -18.336 35.7926
CA 25.9805 3.26502 68.9925
CA 0.401554 2.57795 59.9047
CA -1.1396 -15.3627 52.1946
CA -0.0772717 9.94703 77.5443
CA 13.166 -9.94324 84.7559
CA 12.9944 -25.949 58.5612
CA 28.1502 -0.389523 67.8454
CA -0.303062 -23.8107 39.7474
CA 5.7801 -10.992 68.1782
CA 11.4386 -9.11645 73.7421
CA 27.2141 -9.81308 36.1434
CA 0.0995238 -28.7983 28.4678
CA 21.3079 -8.90139 30.6463
CA 14.3218 -20.4407 38.2402
CA 23.0148 -2.94551 70.3454
CA 22.3357 -11.7523 64.4218
CA 22.7684 -17.3353 47.114
CA 27.961 -7.19265 39.7154
CA 18.057 -10.0602 19.1474
CA 18.7021 -24.3752 55.7423
CA 14.5208 17.8108 72.631
CA 22.8006 -0.134224 44.2848
CA 13.6129 -14.8874 52.0399
CA 14.4645 -1.79359 53.4351
CA 20.1326 -17.1032 53.1513
CA -12.2159 -34.3121 47.0046
CA 13.5221 -12.9445 31.5061
