489

CA 11.5491 -20.2269 51.8723
CA 23.1052 -17.2961 60.3101
CA 11.8686 -17.1228 63.744
CA -24.0156 -0.0885125 54.0114
CA 25.6764 -10.6434 31.2837
CA 6.59843 -22.5736 44.714
CA 27.9694 -22.3331 57.6711
CA 20.8292 -2.5506 46.8011
CA 21.7051 -8.73946 26.694
CA 18.5048 -1.79676 39.8016
CA 13.4362 16.0737 75.683
CA 17.923 -18.3631 16.1168
CA 8.5385 -6.73773 80.631
CA 22.2657 2.05051 50.6014
CA 32.6293 -14.3323 62.935
CA 17.7594 -4.90033 78.7252
CA 19.8245 -13.8 59.714
CA 20.1003 -22.6558 45.504
CA 3.21278 -26.176 45.665
CA -6.31402 -18.37 53.4081
CA -6.00662 -35.3193 60.9326
CA 16.5057 -14.8221 49.7736
CA 4.4113 2.82132 60.5575
CA 13.1031 -24.3694 53.6033
CA 12.1672 -11.3508 17.3582
CA 18.2336 -23.8682 51.2772
CA 12.4663 -16.6289 50.1821
CA -24.7851 2.41609 46.6249
CA 4.1027 10.7149 80.8793
CA 21.9743 -13.1057 60.9624
CA 15.5757 19.474 80.1459
CA 27.7355 7.95596 65.5008
CA -17.7305 -36.0427 62.8254
CA 17.0803 5.42444 59.2803
CA 7.05437 -22.0113 54.2587
CA 12.166 -2.1996 73.8029
CA 23.6663 -4.79569 65.8014
CA -17.3922 9.14285 48.3894
CA -13.0782 -2.37696 48.74
CA 5.85513 -22.1716 42.5758
CA 21.3744 -13.5502 19.6255
CA -14.6507 -35.3776 61.1569
CA 16.3529 -1.73579 48.1812
CA 23.3496 -12.2501 39.2286
CA -12.9027 0.303604 42.7002
CA 25.7717 -13.0773 44.4549
CA -12.8395 20.1642 58.2799
CA 21.493 5.14703 59.5016
CA 19.4823 2.60571 55.8462
CA 23.3908 6.27308 52.7003
CA -9.27881 -36.9717 61.9989
CA -7.60238 -32.826 59.2943
CA 9.63074 19.1046 86.2862
CA 0.438669 -29.509 31.3358
CA 20.0973 5.45783 57.7519
CA 0.247864 23.488 74.2176
CA 3.76967 4.28735 51.5257
CA 20.5439 -16.0114 62.0904
CA 12.007 -11.3853 46.8438
CA -3.7887 -18.5522 50.9485
CA 6.90404 -23.8443 53.1036
CA 4.62494 -21.2927 52.4824
CA -9.77474 12.4985 69.4824
CA 7.5236 -7.43856 67.9603
CA 12.5191 -26.443 52.7283
CA 19.3809 -11.843 32.8826
CA 20.7838 -13.9502 38.938
CA -9.62099 -35.2689 48.159
CA -17.2654 11.8869 51.7962
CA 7.74773 -5.44446 70.109
CA 4.25035 16.5122 78.3175
CA 30.8182 -1.99989 64.2826
CA 10.6278 -21.3352 55.4803
CA -20.1984 -9.87428 47.1532
CA 32.8902 -16.7216 61.5656
CA 0.242357 25.5941 68.7949
CA 6.65417 -17.4534 67.8724
CA 14.6918 -13.2279 35.6793
CA 25.1819 11.2677 57.8408
CA -16.1601 -14.4524 51.4691
CA 22.4082 -10.3476 67.5621
CA 23.477 -22.2099 46.3609
CA 2.23971 -17.9489 70.7868
CA 16.201 -29.1378 51.2067
CA 22.2489 -4.72029 69.3128
CA -12.2786 -34.49 49.2249
CA 20.7358 -20.1539 48.8623
CA 0.609129 -25.2449 43.2277
CA -12.349 12.4364 41.158
CA 0.512868 11.0888 67.9084
CA 15.472 -25.8991 50.3063
CA 7.98673 -5.14932 82.6461
CA -0.975673 -27.9001 25.6757
CA 7.21528 1.52224 60.2147
CA 1.44674 17.2435 80.0288
CA 1.15274 -15.2192 70.7308
CA 9.68109 -14.7848 29.472
CA 13.9654 -18.762 32.918
CA 19.2937 -16.1212 33.8527
CA 10.742 -3.37899 73.8352
CA 31.1612 -4.48352 61.4549
CA 23.519 -14.4718 62.4134
CA 9.55743 -9.71631 17.0343
CA 19.7524 0.949831 47.0456
CA 11.606 24.7037 75.9211
CA 4.1366 25.3252 71.4984
CA 18.3356 -4.5522 47.3259
CA 13.2317 19.8864 85.693
CA 0.404401 1.44437 75.0007
CA 25.236 -2.74776 45.8395
CA 14.1323 13.0929 89.5631
CA 2.0133 25.5579 72.2671
CA 14.3187 31.4832 69.5311
CA -10.0009 -40.3738 57.0334
CA -0.0588638 -11.714 37.4958
CA 14.0972 -15.8352 17.1988
CA 19.351 32.4426 69.2421
CA -13.9425 -0.860472 45.5996
CA 8.49705 -8.79165 72.5012
CA -6.77076 -37.2739 58.7059
CA 21.6272 -18.7063 39.3009
CA 4.62022 -19.19 48.438
CA 10.8037 13.2122 85.3777
CA 8.13744 -17.9901 62.8266
CA 15.2499 32.0428 71.4417
CA 16.4136 -5.48496 51.0639
CA 17.5141 -14.2809 20.0985
CA 20.1586 -0.123559 76.8587
CA 12.7051 -17.7802 11.4492
CA 3.81162 13.9617 82.8253
CA 16.6541 20.0294 88.1186
CA 4.58957 -12.4025 68.1944
CA -6.40424 -30.5096 49.7975
CA 24.0709 -17.3481 52.5792
CA 23.9728 -17.5035 37.4323
CA 25.4289 -1.0029 21.9018
CA 6.51177 -0.500238 61.7162
CA 13.1366 -16.6583 60.6163
CA -1.20059 4.6166 58.505
CA -21.3274 1.28998 45.6632
CA 20.9456 -3.04445 26.8695
CA 21.3037 -11.0959 65.9884
CA 26.3096 -18.8107 47.9687
CA 27.8786 -6.6381 71.9527
CA 19.766 -22.3652 52.1794
CA 22.6406 -18.6017 58.9791
CA 22.4847 -24.8927 52.5661
CA 12.6841 -27.6814 50.2178
CA 19.8771 -26.7298 48.7199
CA 17.8479 -2.17376 45.128
CA 22.1715 2.73467 55.3858
CA 18.8551 4.27844 71.4469
CA 26.4373 6.43926 64.7407
CA -8.64087 -43.9082 55.4126
CA 10.2036 19.2935 83.7524
CA 6.29232 3.54608 69.293
CA -7.09521 -7.81643 49.5617
CA -8.3907 -5.96159 54.7854
CA 18.1797 1.62065 45.8114
CA -6.64076 -34.473 56.3358
CA 11.5878 10.0269 87.4018
CA 22.7335 -3.0534 73.8291
CA 17.8625 -22.5174 34.7207
CA -6.70962 1.18557 46.9724
CA -7.49693 -7.5842 46.5601
CA 27.2469 -2.27844 40.4698
CA 17.8988 3.72548 55.8603
CA 15.567 -21.1444 54.6397
CA -9.78378 -40.2513 55.1741
CA -3.36892 -14.9322 40.2029
CA 10.6395 18.9287 77.0201
CA 6.40915 14.5402 78.3073
CA 0.0939991 -0.66587 60.1017
CA 16.4565 29.1095 70.4668
CA 23.4426 -15.8886 64.3619
CA 10.6405 -7.89522 70.4044
CA 12.2078 -19.4382 15.1167
CA 0.712926 12.5366 63.1634
CA 33.3212 -12.6271 63.3954
CA 2.96072 -27.3596 43.485
CA 5.81217 -21.5507 50.6969
CA -0.777684 26.9058 73.5996
CA -11.1262 -38.9589 54.6203
CA 17.6572 -17.7356 54.7251
CA 27.4295 -2.71633 43.5383
CA 7.97972 -15.3023 50.654
CA 8.19294 -21.6071 48.2601
CA 14.5801 -8.49631 19.8366
CA -3.00278 -5.25345 75.5672
CA 25.973 7.7692 49.0941
CA -0.5572 -27.2714 35.0025
CA 11.3149 -9.76585 20.947
CA 1.94485 -23.1831 19.2396
CA 6.70671 -1.8071 58.0613
CA 21.5412 -6.66225 37.8655
CA -2.3835 -36.2763 62.1891
CA -10.0251 0.945401 46.7968
CA 4.18352 -24.4065 44.1184
CA 8.80348 -16.7267 61.3562
CA 25.1858 -15.7154 40.0206
CA 17.1089 21.4208 89.3625
CA -15.6017 -1.72252 48.0565
CA 12.3163 -8.57923 18.9378
CA 19.3392 -18.5784 61.7872
CA 29.99 -22.5949 61.5162
CA 2.12615 5.23964 71.692
CA 1.19587 -10.0556 40.2321
CA 16.6658 -13.0456 16.057
CA -9.75206 14.2503 70.7675
CA -8.69499 -3.52898 53.2795
CA 21.5444 -7.16369 78.1416
CA -21.7221 0.258119 51.3493
CA 9.30534 -20.5421 51.6832
CA -11.9022 -16.7575 51.3785
CA -21.5981 4.26973 50.2078
CA 10.5389 8.43502 68.8481
CA 13.5476 -16.9093 12.8465
CA 14.673 -3.52766 36.1474
CA 19.729 -10.2408 42.738
CA -11.7678 5.64911 48.8865
CA -19.2639 14.3642 41.0871
CA 7.84023 -14.1089 15.6528
CA 12.0746 -24.2701 55.9665
CA 18.6841 -15.7288 64.0071
CA 6.32391 -9.50414 43.3775
CA 1.59611 -34.8648 60.9891
CA 3.70761 -7.82294 39.8753
CA 20.7517 -13.0495 36.4937
CA -3.62796 -0.0190984 73.8777
CA 6.49625 -5.90874 72.0718
CA 19.7841 -16.6197 22.7463
CA 16.819 -11.296 23.3966
CA 17.3725 -17.318 50.7561
CA -9.35579 -16.9105 54.0881
CA 4.78526 -1.49556 58.6025
CA 16.0383 -26.056 53.8335
CA 14.6529 0.360518 35.8197
CA -9.51045 -11.7133 45.4106
CA -27.5704 2.20751 52.8427
CA -10.2379 -32.4021 45.916
CA 16.0828 -30.4224 48.7676
CA -10.5673 -37.2983 51.7664
CA 13.5388 -17.8442 35.6705
CA 13.059 -1.98421 49.6612
CA 15.6929 -3.05478 72.6672
CA -2.3782 -20.5529 41.5715
CA 7.75649 -3.41712 43.9811
CA -10.9648 18.7582 62.5968
CA -10.4374 -40.1581 61.9129
CA 10.3184 10.8921 66.3387
CA 17.4284 -15.4359 58.6674
CA -7.71632 -38.2569 62.865
CA 21.336 -15.0573 46.12
CA 20.0127 2.92143 53.1924
CA -10.9037 -33.678 51.076
CA -9.55095 -9.35971 45.0788
CA 3.95889 -2.07252 41.5084
CA 25.958 -19.837 50.1303
CA -13.1299 -32.2608 51.2526
CA 7.93423 28.75 73.4343
CA -9.2714 -4.90393 48.966
CA 18.2229 -20.2691 49.8292
CA 9.57096 -1.95736 71.4722
CA 9.20307 23.6263 67.5964
CA 22.5211 -7.228 29.8035
CA 20.0568 -7.00443 81.0011
CA -6.09786 -1.63525 55.0988
CA -3.75799 -20.3094 14.8397
CA -24.7316 3.25368 49.2288
CA 1.48396 24.0107 68.3041
CA 6.09653 28.0156 74.2156
CA -2.35031 -30.5418 48.4573
CA 1.60399 -23.5166 43.8616
CA 17.025 0.779144 48.6676
CA -1.46802 -0.257281 42.419
CA 11.7188 19.6713 88.3563
CA 25.8806 2.9906 66.2534
CA 4.66381 -23.0417 51.1366
CA 1.97391 11.3564 77.1584
CA -4.82477 -20.074 54.8428
CA -20.7768 -8.23717 48.6555
CA 25.8264 -6.46365 30.3246
CA 19.6359 12.1956 84.9945
CA -2.2007 -23.4874 44.425
CA -5.55398 -40.3278 53.6698
CA 29.6812 -14.6413 56.9279
CA 6.02941 14.1774 83.6099
CA 5.07103 -4.53178 40.061
CA 18.4082 2.58846 72.5927
CA 16.7248 1.42376 68.3442
CA 23.5212 -10.7621 28.8459
CA 11.0068 -27.5921 52.8393
CA 20.1746 -0.225145 29.3888
CA 19.4083 -19.9749 51.3853
CA 12.2553 -12.5807 48.2003
CA 10.1687 11.5636 68.3923
CA 1.50079 1.19088 61.9065
CA 23.5229 5.20389 58.5861
CA -0.542954 -25.3045 46.8113
CA 9.9356 21.1899 76.8759
CA 0.745124 -17.6655 68.8224
CA 15.5793 -14.8048 34.2834
CA 8.67074 -22.3323 55.0053
CA -0.76565 -30.0365 37.7933
CA 9.69568 -25.8124 52.6677
CA -14.2051 -41.4025 55.0632
CA 12.4805 -5.84961 40.8109
CA 7.86815 -0.868995 71.5757
CA 1.16735 -12.2345 39.3448
CA 29.5892 -31.5013 57.5013
CA 0.182665 15.5611 76.4865
CA 11.9867 28.2975 71.0701
CA 1.17641 24.9627 65.379
CA -20.469 -3.0704 46.1874
CA 21.9916 -3.75373 38.3597
CA 2.21243 21.7178 55.3648
CA 15.3778 -8.55044 16.6225
CA 17.2944 -17.3404 52.8859
CA 20.3141 -12.8908 27.2924
CA 26.0893 -10.6825 28.6014
CA 26.0668 -21.5368 48.4711
CA 19.5833 -1.69303 28.5308
CA -11.5312 15.5259 74.4961
CA 9.32541 20.1979 81.1605
CA 17.7922 -18.8056 59.9383
CA -22.2923 4.52303 55.3601
CA -4.12694 -4.46418 40.8547
CA 25.6097 -23.7474 54.4504
CA -4.51052 -34.3173 60.2355
CA 14.8428 8.50665 68.3011
CA 31.4966 -16.8267 59.8834
CA 7.88364 -10.5407 80.5357
CA 24.3988 -21.4977 49.9996
CA 9.88303 29.2629 76.8463
CA 7.48672 2.38296 57.2893
CA 23.3877 -23.8754 49.8562
CA 8.08251 -14.6473 41.805
CA -9.36694 18.1579 70.9542
CA 26.5927 -9.32147 30.2945
CA 19.2862 -32.9657 51.873
CA 14.6478 -20.7814 34.396
CA -3.69898 10.3501 67.2395
CA 8.2905 25.2727 77.6466
CA 19.7996 -21.1667 46.6652
CA 1.07224 -35.713 35.3852
CA -10.4425 1.85087 55.2793
CA -7.99916 -35.7977 62.549
CA 24.6251 -4.54542 46.3284
CA -24.83 -6.8844 48.5216
CA 13.9178 -26.7315 51.5725
CA 19.8945 -4.31137 29.0628
CA -7.86981 0.405916 49.7455
CA 32.0409 -30.2928 57.4366
CA -8.54565 -37.291 49.8781
CA 22.3913 2.79361 60.0947
CA 18.9332 -34.4124 54.0897
CA 24.1214 7.81216 47.9165
CA 19.0179 -0.109308 64.4577
CA -22.6014 2.5134 45.2741
CA 15.7482 -11.666 19.0586
CA 14.6879 18.1298 75.1324
CA 4.69674 -0.177285 59.9631
CA 24.6021 -15.1756 26.8206
CA 2.45351 6.08716 76.4514
CA 3.2749 -25.7858 40.4383
CA -14.4187 5.18242 47.3783
CA 21.9782 -0.0552742 46.0639
CA -4.66384 -2.34005 74.4086
CA 21.4632 -15.5464 41.7793
CA -0.126181 22.8746 72.0534
CA 11.5918 -9.68279 71.9369
CA -20.8106 2.86001 54.4691
CA 1.76351 24.378 55.9141
CA -1.71367 -9.0201 77.1148
CA 13.0545 -3.6099 50.5243
CA -2.91925 -3.8305 42.3779
CA 8.42726 -0.845341 74.6747
CA 29.9603 -11.3139 56.9673
CA -3.0486 -22.0225 48.9739
CA -26.9766 -5.33208 51.3237
CA 9.87025 -20.6571 45.6788
CA 12.0739 22.6673 84.3679
CA 8.36511 16.931 80.7053
CA 19.2374 9.80276 50.5107
CA 26.2168 -8.27911 32.7774
CA 15.7629 6.00102 71.625
CA 23.368 6.64021 55.6982
CA -8.08788 -38.7622 59.5813
CA 10.1699 -20.4091 63.3432
CA 13.7654 -7.0607 67.3656
CA -3.10513 5.37069 60.5003
CA 10.9283 -5.60752 73.096
CA 5.43435 1.59179 78.2167
CA -0.448132 11.1501 66.2947
CA 19.2846 -21.7417 50.2604
CA -7.30183 -34.2198 54.4802
CA 6.58569 -23.0352 39.5334
CA 14.2714 12.1327 78.7653
CA 9.30707 0.519296 55.7664
CA 7.51606 -18.1419 65.0627
CA 12.4678 -1.20056 70.7213
CA 17.3785 0.975074 55.821
CA 9.32704 -9.24272 20.9228
CA 3.48802 -26.3731 35.1065
CA 6.58795 19.4534 79.3864
CA 19.5885 1.8001 42.1177
CA 24.5005 -10.0254 41.4767
CA 18.6577 -22.5308 55.2555
CA -5.31127 -23.4146 59.0172
CA 8.43739 -18.5798 50.8231
CA 18.1538 -29.0771 51.141
CA 20.2581 -7.65136 43.8031
CA 20.0872 -16.4968 49.9216
CA 27.048 -15.0014 63.9644
CA -6.92915 -26.4444 47.369
CA 1.54903 -15.0255 72.589
CA 12.5936 8.47533 64.8948
CA 24.929 -12.6671 35.2478
CA 10.1643 -22.0444 34.9312
CA -9.14792 -34.5177 50.4512
CA -5.87196 -26.449 59.5023
CA 21.0609 -17.9436 33.8476
CA -3.53202 -4.64832 80.0205
CA -0.181663 -21.8852 41.9273
CA 8.50295 -25.4794 40.9923
CA 18.3248 10.0834 54.1703
CA 10.2538 -14.3359 61.4981
CA 3.73871 -0.935784 43.1732
CA 19.3682 -23.7628 34.3757
CA 23.0116 31.9304 71.5989
CA 12.4982 -6.22906 69.6204
CA 11.0743 -22.3333 45.6807
CA -3.21687 -13.8737 43.5098
CA 11.8148 2.10609 51.1953
CA 7.53839 -18.6649 48.4285
CA 26.1038 -8.69241 43.9399
CA 27.8581 -29.4331 57.1034
CA 9.90786 -22.7299 44.012
CA 24.9816 7.48385 59.3058
CA 8.71294 -18.049 52.6666
CA 15.8913 10.0201 80.9069
CA 26.584 0.668469 67.6546
CA 17.7925 -13.2356 53.0546
CA 1.5792 -25.3944 41.6019
CA 3.19612 -8.06476 75.6308
CA 18.9128 -25.1391 31.3378
CA 16.1131 15.6859 76.3626
CA -7.54482 1.70286 56.2313
CA 11.8108 21.0789 80.6574
CA -8.49968 -2.34457 46.4056
CA 9.74768 -7.36186 41.4378
CA 0.643783 14.0298 67.9013
CA -2.78843 7.12003 62.5791
CA -0.392005 -31.2565 26.763
CA 23.7737 -21.9705 55.7158
CA 11.7747 -12.1072 72.032
CA 16.9037 -19.8964 34.1488
CA 4.08528 -6.23289 68.4559
CA -5.79761 0.93576 42.5837
CA 15.9518 -21.4041 36.3649
CA 23.3851 -23.0767 60.0878
CA 11.7379 -18.336 35.7926
CA 7.47048 -21.0757 49.9207
CA 0.401554 2.57795 59.9047
CA -7.80375 12.2438 66.6954
CA 16.5811 -6.92205 28.7338
CA 3.08837 -14.6768 16.402
CA 18.6899 -9.47072 30.7954
CA 9.72868 -23.4923 42.368
CA 10.0488 14.7427 75.6166
CA 5.7801 -10.992 68.1782
CA 15.0822 11.5025 84.0438
CA 18.1941 -7.31519 30.4991
CA 0.0995238 -28.7983 28.4678
CA 21.3079 -8.90139 30.6463
CA 14.3218 -20.4407 38.2402
CA 18.3152 -16.8804 38.5944
CA -9.69556 -10.5284 37.4831
CA 1.96922 18.1537 75.751
CA 27.961 -7.19265 39.7154
CA 18.057 -10.0602 19.1474
CA -13.1714 17.0992 74.485
CA 5.63018 9.33113 82.0676
CA 22.8006 -0.134224 44.2848
CA 13.3124 -19.765 49.3709
CA 14.4645 -1.79359 53.4351
CA 20.1326 -17.1032 53.1513
CA -19.0246 -39.6643 59.6085
CA -17.4067 -42.7543 56.1402
