489

CA 11.7151 24.7086 78.4073
CA 4.17251 -15.3913 26.7146
CA 21.9518 -1.60194 46.7909
CA 19.5642 -22.488 53.0861
CA 18.6389 -4.08714 44.1901
CA 6.59843 -22.5736 44.714
CA -3.88066 23.2925 66.9333
CA 36.6408 -18.8048 59.8448
CA 25.9907 -24.0388 58.1665
CA 8.33438 -9.33532 66.117
CA 3.96654 -25.7199 48.284
CA 9.83483 -22.1629 49.5689
CA 8.5385 -6.73773 80.631
CA 0.499209 -10.9859 45.12
CA 32.6293 -14.3323 62.935
CA 10.9748 -6.58488 71.2955
CA 33.8711 -4.27232 62.0486
CA -13.2105 -21.1911 41.0276
CA 10.7385 -17.0968 38.7496
CA 15.8461 -27.4901 52.1051
CA 5.56311 -21.7983 74.0115
CA 16.5057 -14.8221 49.7736
CA 27.7547 -22.781 49.0131
CA 13.1031 -24.3694 53.6033
CA -21.7808 5.81358 58.7735
CA 16.0545 -28.2983 45.4122
CA 12.4663 -16.6289 50.1821
CA 1.86747 -9.30302 41.6279
CA -5.55926 -18.7888 50.2707
CA -11.2986 -33.9841 52.6156
CA 28.6502 -1.89741 47.59
CA 9.42211 -22.2448 54.4771
CA 18.4907 -18.3139 56.2908
CA 4.76765 -20.6703 63.9922
CA 10.332 -16.3439 64.1015
CA 12.166 -2.1996 73.8029
CA 13.9213 -22.0599 52.9297
CA 6.90625 -3.68256 86.9105
CA -7.73598 -22.7671 48.9098
CA 9.20472 -5.01983 41.9521
CA 15.9631 -6.45264 17.3934
CA 1.95529 -23.4631 43.4647
CA 3.3516 -19.6219 38.8967
CA -0.251064 22.5888 64.4816
CA 3.82511 -22.542 44.1468
CA 5.96361 10.7131 80.1993
CA -8.4916 3.44952 48.3143
CA -12.2264 -5.75853 45.6237
CA 23.789 -17.5003 52.8195
CA 22.6119 -29.5385 51.9419
CA 21.4577 -7.22643 29.0344
CA 12.6246 2.23431 69.8892
CA 20.0596 -28.5754 51.8038
CA 9.73732 -10.7892 72.5197
CA 19.4559 -13.4387 66.9003
CA 0.247864 23.488 74.2176
CA 14.3477 -18.5438 48.4677
CA 20.3828 -6.03142 15.3003
CA -3.97525 -19.6105 47.2149
CA -3.7887 -18.5522 50.9485
CA 0.0345767 -1.13957 39.8379
CA -9.42544 -37.0136 57.7427
CA 34.4438 -16.2089 65.4757
CA 4.50627 11.7365 82.385
CA -10.2877 3.47584 48.8992
CA 19.9957 15.143 72.096
CA 27.5715 -19.1951 42.4782
CA -9.62099 -35.2689 48.159
CA 4.88204 26.0237 73.1231
CA 21.1247 -12.1315 20.8457
CA 15.7582 29.0777 69.441
CA 30.8182 -1.99989 64.2826
CA -11.8615 0.130917 49.0633
CA 9.26974 -4.24943 75.4207
CA -7.37635 -32.1761 56.2471
CA 0.242357 25.5941 68.7949
CA 20.1032 -2.47393 45.5462
CA 14.6918 -13.2279 35.6793
CA 12.5258 21.2926 81.7403
CA 39.9142 -10.1843 61.1016
CA -21.1866 3.83181 59.8933
CA 30.056 -28.1653 42.6181
CA 30.1285 -23.3019 43.6527
CA -11.8121 -41.4104 56.7736
CA 24.13 -21.5996 44.3767
CA -12.2786 -34.49 49.2249
CA -11.3327 -2.98381 46.4367
CA -21.0408 1.70409 43.825
CA 25.5391 -23.9381 47.022
CA 22.9728 -30.6965 55.1208
CA 15.472 -25.8991 50.3063
CA 7.98673 -5.14932 82.6461
CA 14.5344 -26.179 42.7873
CA 14.8489 -17.8998 9.28467
CA 6.18492 -26.5154 65.1215
CA 15.5919 5.19949 54.2077
CA 15.5738 3.19616 54.1661
CA 13.9654 -18.762 32.918
CA 23.3452 -23.3566 34.7956
CA 21.4584 -23.292 44.0221
CA 29.9577 -19.1382 50.5763
CA -5.01745 -36.6147 47.5052
CA 9.55743 -9.71631 17.0343
CA 19.7524 0.949831 47.0456
CA 11.2546 -11.0134 27.4914
CA -7.058 -31.7455 65.0968
CA 7.24649 -23.1752 42.5001
CA -2.49537 -5.49575 44.1236
CA -3.28644 -0.4078 59.9234
CA 25.236 -2.74776 45.8395
CA 9.3671 -18.4024 54.025
CA -7.46651 -36.4593 67.5536
CA 16.7833 -31.8714 51.0402
CA 21.5319 -19.0644 64.138
CA 2.35258 -34.2784 62.4028
CA 14.0972 -15.8352 17.1988
CA 19.351 32.4426 69.2421
CA 3.5618 -3.45185 56.1913
CA 8.32997 -6.71773 66.951
CA -6.77076 -37.2739 58.7059
CA 21.6272 -18.7063 39.3009
CA 14.8493 5.78662 56.9282
CA 10.8037 13.2122 85.3777
CA 4.61779 31.1312 71.7167
CA 20.2117 -19.9969 53.8394
CA 13.6287 17.4709 78.4133
CA 23.2351 -23.4256 59.9003
CA 17.4229 -33.0442 49.8246
CA 27.7718 -18.6364 49.094
CA -2.62975 -16.6074 46.1333
CA 3.66279 2.46317 78.6111
CA 17.8483 -26.6416 44.7334
CA 20.8823 -18.4722 68.7338
CA -5.74942 -23.7691 47.6758
CA 10.869 -16.5763 18.5874
CA -2.14476 7.04216 58.4877
CA -10.9564 -26.0219 41.9842
CA 3.5477 -19.6189 40.9738
CA 10.2626 -10.0041 65.9225
CA -13.5658 -30.8138 43.6377
CA 20.4821 -9.30125 14.4296
CA 4.68502 -7.98624 65.0077
CA 21.1579 -19.8382 49.2559
CA 27.8786 -6.6381 71.9527
CA -7.65504 -4.63275 56.7334
CA 22.4352 -21.6843 47.2703
CA 23.5133 -6.91433 29.5287
CA 20.9472 -4.12255 45.5399
CA 12.8342 -16.1554 11.1129
CA -10.52 -38.5444 50.0698
CA 7.5784 3.94581 79.2044
CA 11.7655 -29.3088 50.4403
CA -6.32817 -29.7044 49.421
CA -10.0574 -1.59278 46.8479
CA 18.9675 -21.2458 34.8483
CA 13.568 12.5561 85.3186
CA -7.09521 -7.81643 49.5617
CA -8.3907 -5.96159 54.7854
CA 16.1617 10.2825 75.2417
CA -3.63699 -13.9584 48.0826
CA -3.70912 3.21708 41.7099
CA 22.7335 -3.0534 73.8291
CA -11.5545 -5.26067 50.5794
CA -25.5718 7.06127 61.78
CA -0.212048 -27.9368 37.7257
CA 5.10993 -24.5914 61.9632
CA 21.2798 -3.33098 32.5129
CA 18.5456 -1.30843 72.8088
CA -11.6301 -20.6379 42.0656
CA -4.29015 -42.4903 61.9206
CA 3.21568 2.17916 56.9256
CA 31.3402 0.551812 60.29
CA 0.0939991 -0.66587 60.1017
CA 30.1891 -18.0486 46.3814
CA 28.5242 -19.8992 58.1853
CA 12.8303 -3.07504 56.8347
CA 12.5328 -24.0556 36.6496
CA 21.8393 -16.6432 54.8711
CA 22.0034 -7.82024 45.0462
CA -13.7164 -34.0503 47.1698
CA -4.71832 -6.41538 51.9519
CA 21.8753 -24.4129 32.9661
CA -11.5915 -24.6874 43.1044
CA 16.4568 -22.2346 48.3171
CA 24.5248 -6.42767 28.0025
CA 7.97972 -15.3023 50.654
CA -11.4519 -38.8515 59.3375
CA 24.0308 -24.0953 53.1719
CA -3.00278 -5.25345 75.5672
CA 11.5563 -20.2881 63.9104
CA -7.07211 -36.4838 47.239
CA 11.3149 -9.76585 20.947
CA 14.4709 -14.1048 30.7613
CA 30.8424 -2.42188 47.6186
CA 21.5412 -6.66225 37.8655
CA 2.77456 -8.5216 71.0614
CA -10.0251 0.945401 46.7968
CA 4.18352 -24.4065 44.1184
CA -15.5417 -3.84312 52.4359
CA 25.1858 -15.7154 40.0206
CA 13.3046 -19.5867 45.2855
CA -15.6017 -1.72252 48.0565
CA 16.1029 -16.6774 38.0356
CA 27.4181 4.86578 63.0814
CA 29.99 -22.5949 61.5162
CA 15.0396 13.3811 86.6132
CA -2.98349 -23.7352 45.7158
CA 13.5118 -0.546702 75.4927
CA 1.87454 -22.0976 72.1479
CA -8.69499 -3.52898 53.2795
CA -18.7608 -0.672024 42.2773
CA 15.6223 -7.7261 20.9927
CA 9.30534 -20.5421 51.6832
CA -1.08675 -30.8367 70.1144
CA 20.5925 -2.56193 74.9046
CA 20.8367 -6.61644 20.4149
CA 15.1608 -5.73885 41.9748
CA 23.3382 -27.5824 48.4701
CA 11.2661 -17.4396 61.6944
CA -11.7678 5.64911 48.8865
CA 15.1179 -17.0851 62.7963
CA 20.2652 -10.0676 28.323
CA -2.34359 -14.547 37.3998
CA 23.0937 -10.6085 34.7964
CA 0.994781 27.9422 72.3075
CA 25.6225 -21.935 49.2189
CA -4.24731 -5.9349 56.5506
CA -6.71958 4.80001 41.2278
CA 17.0158 3.84229 69.9855
CA 18.2125 -9.80454 72.4494
CA 38.8264 -17.2037 59.2341
CA 24.1891 -3.27807 38.0473
CA 5.3164 -7.55987 42.4456
CA 8.39775 15.2143 87.2948
CA 10.2286 -0.908456 54.2638
CA 0.863622 24.1265 63.6224
CA 11.2262 -24.2664 53.7121
CA 18.2298 -17.6369 36.3543
CA 24.8921 4.9546 70.4893
CA 8.90453 8.73287 82.1663
CA 8.62522 13.9106 84.6694
CA -0.0923135 -9.53837 46.4981
CA -27.2069 7.04179 59.6693
CA -6.96241 -27.4905 43.344
CA -2.98884 -33.6144 47.2015
CA 13.4025 2.29578 72.3145
CA 6.07683 -16.8763 69.6105
CA 13.3197 -10.3868 62.0324
CA 25.3664 -26.9846 47.5228
CA 6.35798 -11.9745 29.0951
CA 6.51679 -32.6558 60.9782
CA 22.189 -16.2095 36.6195
CA 6.59438 -23.3303 73.2448
CA 3.29203 -12.2573 41.4476
CA 9.00778 15.3408 79.6527
CA 21.7589 -20.8161 54.6393
CA 8.45018 -20.6239 63.4538
CA -7.26958 -4.21313 60.2316
CA 18.4489 -21.5868 54.613
CA 7.93423 28.75 73.4343
CA 17.9854 -14.7126 37.0868
CA 16.1525 -24.9114 38.9888
CA -4.75554 -3.16494 45.0736
CA 4.47886 0.000876183 62.1168
CA 14.0388 -14.9367 32.9421
CA 14.9195 -24.2354 41.2675
CA -6.09786 -1.63525 55.0988
CA 23.707 -7.01101 75.4581
CA -2.60402 -0.0944259 39.595
CA 4.38788 -2.23941 54.547
CA -5.88538 -0.11896 58.4282
CA 10.9299 19.7653 82.4079
CA -1.99306 -29.7745 44.0411
CA 5.80461 8.19332 83.5361
CA -1.46802 -0.257281 42.419
CA 19.6148 -18.7137 49.95
CA 22.6059 7.16613 60.7137
CA 6.19004 -9.68082 67.3681
CA 1.97391 11.3564 77.1584
CA 7.41609 3.086 81.107
CA -20.7768 -8.23717 48.6555
CA 13.0323 11.2115 66.6767
CA 15.705 -7.02427 70.3731
CA 27.3381 -6.13502 43.1162
CA 18.6969 7.20955 52.3784
CA 11.6018 -2.25179 61.6404
CA 6.02941 14.1774 83.6099
CA 11.0127 10.8627 85.4673
CA 18.4082 2.58846 72.5927
CA 19.9183 1.60974 70.4442
CA -5.95345 7.13395 42.5673
CA -2.76703 -5.27324 46.3756
CA 20.1746 -0.225145 29.3888
CA -5.20123 3.50063 45.0497
CA -21.6748 3.73439 57.7388
CA 23.778 -23.1351 56.6089
CA 20.0904 -11.1913 17.4879
CA -0.682299 24.73 62.4631
CA -0.542954 -25.3045 46.8113
CA 10.871 -14.1555 49.8646
CA 1.80249 -31.3742 66.1506
CA -11.8301 -8.91612 55.3306
CA 23.5879 -29.0244 54.3686
CA -9.17502 4.01855 44.3008
CA 6.37694 25.5412 74.8786
CA -14.2051 -41.4025 55.0632
CA -5.92215 -2.81885 43.4219
CA -5.03764 -34.9468 59.8983
CA 34.6041 -2.29555 42.7246
CA 9.91044 -4.05422 58.5478
CA 9.47564 -17.1249 34.4042
CA 11.9867 28.2975 71.0701
CA 19.626 -8.27415 24.116
CA -20.469 -3.0704 46.1874
CA 21.9916 -3.75373 38.3597
CA 27.7692 -12.7024 64.2007
CA 33.0436 -14.6032 65.776
CA -5.80474 -34.2823 56.1664
CA 20.3141 -12.8908 27.2924
CA 12.6598 -19.7455 51.3592
CA -8.08031 -2.11444 47.9704
CA 23.1253 -11.6679 62.8226
CA -5.33916 8.11126 63.9686
CA 12.6311 -18.6265 62.9701
CA 20.6708 0.102204 50.9387
CA 4.79949 -5.57296 72.8925
CA -4.12694 -4.46418 40.8547
CA 1.24501 -12.1981 68.3179
CA 19.856 -7.66216 34.5029
CA 20.4086 -2.04368 30.2646
CA 36.0692 -14.4438 60.0439
CA 20.3861 -20.2274 37.7373
CA 20.7748 -24.5531 48.1584
CA 10.3577 -11.6991 74.0522
CA -3.03702 25.5812 63.7824
CA 22.2931 -21.6605 58.0219
CA 8.08251 -14.6473 41.805
CA 7.47437 13.1047 81.7206
CA 25.3123 -20.1773 47.7044
CA -13.8637 -34.1824 50.0757
CA 17.0925 -14.5279 22.8785
CA -3.69898 10.3501 67.2395
CA 8.2905 25.2727 77.6466
CA 15.0466 14.485 76.6536
CA 29.7001 -19.5865 59.8852
CA 13.7281 -5.94445 23.4639
CA -5.31499 -28.6923 58.3717
CA 31.4035 -15.5038 43.5844
CA 31.3842 -3.46035 58.9921
CA -2.89889 -25.9164 39.7412
CA 2.07129 -28.7264 68.1516
CA 2.65363 -24.9359 63.6643
CA 20.7837 -6.0731 74.7258
CA -25.812 3.05613 60.4501
CA -12.7602 -37.2638 47.6377
CA 3.53687 -2.14094 58.135
CA 4.20884 -12.0347 77.3573
CA 2.65901 -10.4 69.5955
CA -22.6014 2.5134 45.2741
CA 8.35736 -4.16084 72.3715
CA 39.672 -13.1925 58.2385
CA 18.2606 -8.24494 18.9595
CA 1.04543 -24.6899 39.3827
CA 17.4979 -24.3189 31.8557
CA 5.43748 -13.4001 77.7516
CA -3.49414 -26.2675 48.6164
CA 11.1542 -6.00533 43.1039
CA 24.8426 0.000150751 68.6163
CA 5.76499 -19.1674 63.9076
CA 15.0257 11.2534 83.1
CA 6.74392 -1.76479 55.9509
CA 14.8414 -5.46367 69.3606
CA 13.8982 -3.94696 38.6781
CA 20.316 12.8033 58.7182
CA 13.7741 -4.89786 45.5908
CA 25.5414 -23.8793 43.6816
CA 15.1702 -34.2224 54.6049
CA 12.1615 -9.8107 18.6719
CA 19.9656 13.2396 77.4224
CA 22.5586 -23.6011 47.6773
CA 5.19986 0.402453 76.5415
CA 23.2648 -12.6811 38.9425
CA 3.87129 10.5076 74.3666
CA -7.23371 -18.0587 45.0566
CA -11.8243 -21.0933 52.8741
CA 15.7629 6.00102 71.625
CA 23.368 6.64021 55.6982
CA 15.5683 31.2406 68.969
CA 12.0375 17.029 82.066
CA 16.6349 -1.15185 42.9982
CA 13.1312 -7.34099 66.8116
CA 15.4345 10.2694 87.9159
CA 5.43435 1.59179 78.2167
CA 27.6395 -5.72697 73.6094
CA 25.5998 -17.656 42.6878
CA -14.8138 -28.9968 42.2686
CA 11.9453 -4.97241 71.5909
CA 21.6572 -2.46573 44.5557
CA 9.30707 0.519296 55.7664
CA 0.355526 -26.1638 30.8924
CA 10.3528 26.0112 74.1999
CA 19.7211 -3.79593 80.4079
CA 22.9888 -5.40733 38.4129
CA 27.0971 -17.4981 52.6319
CA 6.58795 19.4534 79.3864
CA -10.1951 -0.0444808 57.9192
CA 24.5878 -16.5972 41.5666
CA 14.3988 -34.902 51.7912
CA 22.4205 -29.4013 47.8881
CA 11.9401 25.3569 84.5215
CA 18.1538 -29.0771 51.141
CA 12.3639 0.241801 52.844
CA 21.9085 -21.4459 45.3914
CA 10.1278 -8.11887 65.2209
CA -6.92915 -26.4444 47.369
CA 24.172 11.831 50.0253
CA 43.3595 -13.3915 61.0881
CA -5.16532 -35.5324 61.6184
CA 28.7036 -20.4764 44.8639
CA 15.1858 -7.34729 11.2537
CA 16.0196 -19.5912 64.925
CA 0.688428 10.5703 71.6638
CA 27.995 -1.2666 65.3223
CA 7.40912 -7.91344 43.3043
CA 14.0487 -4.11924 72.4251
CA 18.3248 10.0834 54.1703
CA 12.0669 -15.2212 67.076
CA 23.9737 -20.48 58.5372
CA 19.3682 -23.7628 34.3757
CA 23.0116 31.9304 71.5989
CA 12.4982 -6.22906 69.6204
CA -14.5389 -42.4638 56.5075
CA -3.49092 23.5115 64.0566
CA 12.1477 -18.0609 15.111
CA 18.6716 -10.0874 33.1253
CA 4.37143 -12.5505 66.3367
CA -2.36025 -37.4833 58.3964
CA -2.09123 -26.3943 44.6371
CA 8.36752 -2.0452 61.83
CA 14.869 -21.7682 34.1358
CA -13.1005 -36.5646 58.043
CA 26.584 0.668469 67.6546
CA 2.25167 -27.5977 43.659
CA 16.2316 -12.073 70.275
CA 6.80341 -2.7305 73.3897
CA 16.9953 13.295 75.4437
CA 6.23385 -22.9299 64.6124
CA 13.2372 -12.7998 15.8877
CA -0.0193959 -35.6267 60.4409
CA 22.2933 -24.425 49.7502
CA 43.9331 -15.508 60.1731
CA 7.54022 -8.60314 76.9527
CA 19.0221 -6.01148 11.5508
CA 2.47505 -10.4328 72.805
CA 16.4238 -16.3574 54.312
CA -10.6893 -18.0074 39.1398
CA 4.47887 -8.91698 41.3082
CA 10.6734 -4.41531 61.1651
CA 1.80897 -27.2328 29.8159
CA 3.16616 0.43521 54.8029
CA 9.38692 -11.9309 66.5159
CA 11.7379 -18.336 35.7926
CA 9.14114 -12.5039 68.3487
CA -1.30735 0.552382 40.811
CA 20.1264 -14.2405 29.5523
CA -4.99957 -26.5261 42.098
CA 6.97241 -14.6162 47.8976
CA -14.3298 -19.2747 42.397
CA 27.9564 -14.947 42.8629
CA -6.59372 -9.46188 54.5293
CA 11.8963 -7.17564 26.9874
CA 12.5729 -11.3053 23.6602
CA 6.67005 2.84444 77.7278
CA 27.0001 -19.2434 46.2951
CA 21.3079 -8.90139 30.6463
CA -6.39532 -20.4988 50.5395
CA 18.3152 -16.8804 38.5944
CA 4.4686 -24.3772 39.8676
CA 6.48599 -4.34235 69.8818
CA -8.02728 -27.4317 41.8845
CA 24.3058 -18.5311 43.9134
CA 18.38 6.23591 70.215
CA 0.130922 -21.3576 71.3456
CA 1.49668 12.0638 68.4506
CA 35.6897 -16.5702 62.8503
CA -5.18732 -6.58987 54.5011
CA 20.1326 -17.1032 53.1513
CA 11.9603 23.3778 80.4034
CA -1.55773 22.7404 63.0691
