489

CA 11.2313 15.6611 83.1122
CA 28.3988 -23.413 49.5979
CA 12.273 2.92775 57.9919
CA -2.25982 22.4938 69.7247
CA 14.8 -6.01658 47.217
CA 8.76002 -14.5293 13.5239
CA 10.5901 0.472998 71.55
CA -7.90909 -45.7414 50.145
CA -8.93982 -0.941652 46.2763
CA -9.88735 -35.9628 58.5787
CA 8.49865 -16.6666 53.8504
CA 23.0733 -30.0289 62.6516
CA 10.8478 -19.1252 53.8861
CA 16.5076 11.8926 86.8815
CA -1.22023 -35.4665 64.4525
CA 1.15702 -12.4632 72.6767
CA 17.5893 28.6514 57.294
CA 8.78598 -28.296 56.6558
CA 19.3458 -9.35783 40.1728
CA 1.05572 23.2124 70.1002
CA 5.11808 19.0193 78.6143
CA 6.4725 -32.7323 58.5458
CA 27.8058 -9.58673 37.6882
CA 26.9337 -19.663 55.4775
CA 20.3022 -20.5263 63.7267
CA 22.7315 -27.2907 47.7993
CA 3.0476 -33.6583 65.1987
CA -5.78526 -24.7536 34.0141
CA 22.2511 -20.1394 14.3155
CA 28.2197 -19.1404 61.0283
CA 6.23977 -33.0867 66.3666
CA 22.6004 -21.2727 44.7616
CA -4.38551 -36.1905 58.0478
CA 24.6248 7.2131 50.0769
CA -8.31036 -37.9108 60.1646
CA 15.2023 -17.6023 32.9361
CA -8.02648 -6.76643 47.004
CA 17.3149 -25.4518 51.3937
CA 31.6144 -23.8113 61.5953
CA 13.9031 31.6431 65.7239
CA 14.53 -1.0372 65.4709
CA 4.1174 -28.0155 41.6703
CA 42.8734 -2.88476 59.9652
CA 19.8007 -12.937 31.7477
CA -11.4578 -41.9312 59.5454
CA 8.98209 -12.5099 40.0875
CA 31.4645 -21.4686 54.3763
CA 4.57426 -41.3699 67.4014
CA -10.0493 -47.4257 50.7639
CA 11.4646 -26.8827 56.3707
CA 15.3452 -26.8902 50.3015
CA 19.117 -17.4471 19.4116
CA 10.6375 -30.588 52.1273
CA 10.1255 -23.5574 13.9915
CA 22.5782 -25.6782 45.2933
CA 20.8744 -13.1501 67.0638
CA 6.48895 -25.3679 57.3324
CA -0.200181 -31.669 33.9765
CA 17.2229 -20.5866 33.0833
CA 13.2265 27.5207 66.3463
CA 23.7978 4.44111 54.0631
CA -5.74373 -45.5554 57.1208
CA 26.0406 -32.2723 46.3787
CA -1.76523 -0.0468961 46.0641
CA 24.7527 -34.2716 46.3543
CA 7.39226 -22.7216 57.5972
CA 18.9279 -9.65961 20.1851
CA 5.30614 -27.0399 60.8058
CA 12.9253 6.46126 75.787
CA 20.3654 -25.6488 37.5083
CA 50.1105 -16.739 60.471
CA 16.0789 -16.6 40.6507
CA 2.94092 -44.8575 69.8736
CA 16.3545 33.5277 68.5901
CA 0.502613 -33.8896 44.4741
CA -6.6474 -38.1454 53.8678
CA 23.1101 -29.6206 42.0865
CA 3.03156 -33.2205 43.3114
CA 8.02773 29.2295 69.1978
CA 39.9142 -10.1843 61.1016
CA 4.83596 -38.9466 60.8584
CA 10.7596 16.2876 80.3508
CA 17.6876 30.3473 61.4905
CA 31.1595 -21.0222 58.1029
CA 22.2198 -12.9117 29.2688
CA 15.2215 -10.7548 54.2032
CA 16.2181 22.8955 54.1103
CA 14.9673 33.7274 67.3347
CA 1.60062 -26.0513 64.7196
CA 10.0569 -3.71462 49.2399
CA 2.70065 1.08124 82.1119
CA 18.2825 -9.30015 50.4551
CA 17.7934 -14.7088 67.9592
CA 1.86397 -28.4709 36.7992
CA 41.3758 -9.36831 59.6814
CA 15.5919 5.19949 54.2077
CA 17.8004 -6.46896 72.0345
CA 5.93608 -26.4726 26.7971
CA -0.258284 -33.4812 65.2428
CA -8.75785 -0.182228 52.0392
CA -10.9943 -33.2972 50.4292
CA 24.3222 -29.69 45.7644
CA 8.33398 2.11202 73.4729
CA 12.689 -26.9218 50.5022
CA 19.28 -33.81 58.0142
CA 20.6311 -35.0522 59.4265
CA 20.7916 16.5749 78.0066
CA 0.942379 -14.1361 65.2089
CA 25.1896 -21.256 53.669
CA 14.8126 -19.3674 41.1939
CA 20.0952 -6.59073 72.6009
CA 20.1978 15.0547 55.8951
CA 24.2177 -31.4155 44.7176
CA 14.708 -11.4892 56.2829
CA 11.1496 -24.0771 56.1453
CA 14.0972 -15.8352 17.1988
CA 6.33157 -23.4485 40.837
CA 21.4598 -32.2058 46.4052
CA -5.28599 -40.3432 58.8566
CA 9.24395 -48.1276 62.585
CA 12.4942 -4.87251 70.8188
CA 21.4365 -23.9076 47.242
CA 21.7403 -15.9575 39.4954
CA 37.302 -15.2717 61.7398
CA 21.3206 -6.57063 68.3094
CA 46.2739 -7.54956 64.7856
CA 18.1234 13.3635 86.3138
CA 35.0776 -11.7862 57.1074
CA 15.5279 -10.482 67.2809
CA 38.848 -11.8962 60.9795
CA 36.9674 -2.5975 46.7237
CA 8.14752 -24.6972 55.4776
CA -1.01099 -13.7862 41.8005
CA -2.00194 -34.4804 44.2866
CA -15.2564 -33.1455 49.0189
CA -10.4053 -36.3381 53.6427
CA 1.18453 -40.9531 51.0733
CA -8.91869 -34.0217 59.3455
CA 13.7981 28.7032 69.7941
CA 41.9761 -2.91084 62.7357
CA -8.59234 -36.744 51.7625
CA 21.8492 -29.9678 44.3418
CA -10.8223 -31.5263 47.8906
CA 15.6843 -12.5639 66.9212
CA 6.6746 -24.6873 52.2822
CA -10.3308 -3.7118 51.2837
CA 14.9788 -20.2054 16.4433
CA -5.56027 -45.2099 51.0159
CA 11.7004 24.4243 71.7407
CA 29.4131 -0.284337 48.8926
CA 17.4064 -28.2537 48.6641
CA 2.29787 0.837237 79.6776
CA 19.9155 2.04871 74.7136
CA 13.5717 -15.4491 57.7912
CA -2.09112 -43.7491 51.922
CA 17.4667 -11.6003 14.8018
CA -5.01303 -35.0207 62.6851
CA 16.6003 -7.36813 23.3714
CA 12.3338 -16.9957 41.407
CA 23.9302 -17.5956 21.5236
CA 23.3308 -31.5272 61.6508
CA -14.5659 -3.48991 50.3528
CA 18.0851 16.1988 84.6755
CA 24.2254 -14.4302 49.8575
CA 15.5517 -30.796 47.7013
CA 6.41271 -1.14394 57.5743
CA 6.1421 -12.1897 40.4891
CA 13.0262 -4.88937 43.9731
CA 15.622 -22.4109 51.3726
CA 21.9454 -32.4642 63.4944
CA 7.61469 25.8273 70.9712
CA 16.9677 -5.89767 70.4904
CA 12.9986 -1.92343 64.2211
CA 30.6072 -23.8265 57.9018
CA 4.78795 -32.6009 65.014
CA 11.1374 -43.8184 59.3376
CA 21.5837 -10.3335 22.2818
CA -8.46718 -4.00292 45.1933
CA -5.83751 -39.8394 47.5835
CA -1.58133 20.3263 67.478
CA -2.31625 -22.8486 44.6383
CA 31.2815 -7.8969 64.7304
CA 9.46271 -1.7322 64.9206
CA -9.62684 -1.75961 57.1438
CA 3.81413 -30.7143 61.2062
CA -6.72649 -33.7065 61.1578
CA 17.7926 -25.1515 46.4488
CA 15.0069 -8.57251 56.1468
CA 17.4091 -16.1557 42.8468
CA 15.7691 -4.49413 69.9757
CA 17.8986 7.33005 71.1365
CA 20.259 -6.26826 16.57
CA 19.7981 -18.1588 41.711
CA 26.7626 -10.8655 42.2229
CA 12.9092 26.1506 61.532
CA 17.0445 -14.5803 69.7643
CA 17.9048 -2.31745 35.6645
CA 36.9301 7.41754 46.9296
CA 18.152 -27.8261 41.5158
CA 8.24869 30.5509 67.8857
CA 11.0384 -32.9738 58.7571
CA 16.8131 -14.9925 65.6901
CA 10.3844 -15.8475 66.5646
CA 14.064 -18.3906 16.3574
CA 5.38375 -14.7436 60.4274
CA 12.9737 27.9251 74.8375
CA 15.6577 -33.6498 58.3785
CA 17.7166 -19.7349 15.2569
CA -11.4701 12.914 44.8822
CA -1.20523 -11.2236 36.7292
CA 22.2583 1.92031 78.8918
CA -15.4923 -12.5704 56.0013
CA 33.9315 -10.0963 57.3129
CA 7.42688 -12.8949 57.7489
CA 0.561393 -29.7686 38.0806
CA -7.78063 -30.4699 47.4677
CA -0.410642 -45.6849 71.894
CA -2.61489 -40.255 49.1379
CA 26.5582 -18.3169 39.7291
CA 12.7546 -20.1765 65.9004
CA 3.26462 -14.5466 59.0859
CA 20.2652 -10.0676 28.323
CA 21.0661 -18.6165 35.955
CA 32.4234 -19.9498 34.7314
CA 17.5813 -3.68265 71.1946
CA -7.28832 -5.92253 42.8569
CA 28.7117 -14.01 62.6006
CA 14.961 -0.960611 73.4244
CA 10.9471 -45.7306 56.1913
CA 11.7393 -27.4981 54.171
CA -8.40989 -36.3833 62.8033
CA 9.22177 20.9009 74.3153
CA -1.42741 -36.4089 58.7162
CA -5.47293 -0.271386 58.6341
CA 15.0573 26.0616 61.6858
CA 35.3481 -18.5612 59.3558
CA -6.82984 -47.2212 51.6001
CA 13.2172 25.5438 76.4164
CA 3.01097 -26.0701 35.9392
CA 20.2137 -14.8815 55.9293
CA -9.91833 -5.21397 46.6659
CA -13.0998 -4.0157 48.703
CA 1.1511 -44.6609 53.5445
CA 18.6348 -29.4181 58.6055
CA 24.0077 -8.62245 40.5978
CA -9.28998 -44.2111 57.5372
CA 10.4879 -3.67851 58.3873
CA 14.9763 -15.7198 59.1187
CA 18.7812 -15.9335 56.4882
CA -1.15891 -11.5856 76.0387
CA 25.8561 -21.2231 38.721
CA 16.9757 -9.98696 22.8695
CA -1.46683 -24.2166 41.0292
CA 17.0334 -35.8977 57.5064
CA 13.6353 -18.7486 31.5048
CA -9.9996 -44.1304 55.7323
CA 29.5151 1.94291 51.687
CA -9.58059 1.7479 52.5192
CA 20.1732 -30.5431 64.0357
CA 21.4142 -27.1777 40.6285
CA -17.2898 -24.1918 43.5461
CA 19.6602 -17.4153 66.9184
CA 18.7825 -0.885706 71.7819
CA -7.79544 -35.3246 55.681
CA 10.4955 30.9883 71.4527
CA -13.6882 -25.0772 36.0384
CA 10.9716 16.4441 87.1748
CA 17.4904 26.0644 57.5055
CA 15.3596 -2.63256 63.8855
CA -0.101694 0.127714 80.893
CA 53.1118 -22.7182 61.5845
CA 34.7866 4.13407 48.2771
CA 12.5061 20.3168 80.1499
CA 2.28259 -12.1409 44.8249
CA 14.2174 -20.36 44.0916
CA 17.6037 -26.3273 36.7945
CA 5.54313 -23.2768 58.1481
CA 46.5707 -2.38697 59.841
CA 24.2845 -13.2452 52.8081
CA 36.1404 -19.5191 54.5933
CA 24.4635 -25.7399 66.6241
CA 43.6235 -3.92698 63.598
CA 11.768 -10.0465 52.7339
CA 2.89998 -13.1095 60.1989
CA 2.04481 -15.6504 69.2465
CA 10.1869 22.8276 79.7635
CA 33.3007 2.67071 54.5149
CA 24.4258 7.00978 45.9867
CA 11.5711 20.9112 82.2068
CA 19.9789 7.17058 68.9148
CA 24.7206 -12.3343 40.9051
CA -3.04392 -42.1082 44.431
CA -8.74615 -21.689 33.5164
CA 15.8751 -8.40478 49.8322
CA 23.5773 -18.9433 37.739
CA 9.48236 -26.3292 55.4741
CA 18.7829 -8.01144 59.3025
CA 11.3593 -7.54956 58.6865
CA -3.08164 -37.7385 59.0178
CA -7.98961 -37.5823 57.4493
CA 19.7767 -12.763 62.5444
CA 19.8225 12.4454 86.7209
CA 17.4602 -4.72652 61.3612
CA -0.0566917 -34.8978 41.6004
CA 18.04 -5.23275 59.2407
CA 18.2971 4.66298 70.771
CA 37.3687 2.49851 50.5924
CA 1.85028 -27.3517 34.9722
CA -3.48295 -2.30567 51.5672
CA 3.69259 -28.6343 63.9827
CA 8.86247 -11.8903 67.9226
CA -0.336048 -15.781 38.0174
CA 33.7703 2.43415 49.0745
CA -6.68259 -13.7415 34.5962
CA 11.4619 -17.8232 39.5525
CA 0.906832 -25.4139 46.0031
CA 15.9463 -19.6166 44.8283
CA 2.1109 -12.6827 68.938
CA -10.7901 -38.7154 61.7764
CA 16.7493 -9.38955 33.8679
CA -17.8579 -10.5599 53.1501
CA -16.3416 -22.4879 42.4354
CA -6.84015 -2.22775 56.4237
CA 7.71189 -1.74308 63.9549
CA 23.107 -19.1018 50.9089
CA 6.57953 -33.9561 68.7782
CA -9.305 -26.872 45.0618
CA 4.93225 -2.80315 58.1149
CA -4.19945 -0.330089 48.9013
CA 31.2469 -11.7917 35.6768
CA 18.5746 -20.5613 36.743
CA -12.3387 -25.5644 40.9513
CA 47.9836 -15.677 58.8679
CA -6.37551 -10.5079 38.7817
CA 20.6247 -29.7399 60.3434
CA 36.5858 0.564726 46.0978
CA 19.8694 -27.781 59.8284
CA 25.2608 -10.9006 39.4796
CA 21.3399 -27.2192 65.1761
CA 7.16889 -29.2624 41.4452
CA -10.128 3.70938 41.2181
CA 13.5804 10.1835 77.1223
CA 31.7525 -21.2908 56.2501
CA 47.3246 -18.5907 61.8947
CA 7.03489 -3.82554 57.4773
CA 15.308 13.9732 83.988
CA 2.40641 -20.4398 40.9275
CA -0.821349 -36.7957 43.7504
CA 3.01081 -44.6924 64.6929
CA 4.63451 -26.1864 40.1894
CA 12.0423 -13.4771 17.0542
CA 24.9283 -5.53691 46.1939
CA -3.1762 -19.4925 41.0369
CA 1.79082 -25.3267 62.593
CA 19.5592 -0.470666 68.9421
CA 13.271 -13.9591 22.2952
CA 11.7275 13.1194 86.4754
CA -0.983403 18.2688 66.3955
CA 16.7221 -22.5427 42.8658
CA 13.3483 22.0888 69.0635
CA 50.323 -21.6978 60.7406
CA 10.2894 -41.0055 58.9304
CA 20.7755 -29.2309 65.2627
CA 19.1931 -17.903 58.6194
CA 9.92535 -12.5041 55.2996
CA 25.4535 7.03698 54.042
CA 27.596 -17.1468 58.2845
CA 25.236 -2.6219 48.4384
CA 38.1607 -12.9809 62.7694
CA 36.4964 -21.1777 58.4424
CA 18.1273 -7.06488 74.2229
CA 9.55267 -6.78668 57.1055
CA -3.20109 -49.0238 69.2675
CA 23.0474 -11.0344 38.8731
CA 14.5129 -5.44803 37.2969
CA -7.53318 -34.6411 51.6023
CA 13.3757 -8.76252 68.368
CA 3.71582 -27.4483 38.4527
CA -3.76092 -40.9027 47.0775
CA 42.4367 -6.38244 58.6126
CA 12.9785 -1.80272 68.6504
CA 6.60394 18.084 79.3329
CA 32.62 -19.902 61.4703
CA 27.9129 2.75466 49.0264
CA 5.9048 -29.2231 65.5559
CA -6.23068 -42.8827 51.4825
CA 10.0207 29.1406 68.0347
CA 9.92665 -25.7024 60.9591
CA 27.9222 -7.97984 41.0437
CA 23.2388 -25.8805 63.98
CA 13.2496 -10.4301 65.8775
CA 15.294 -17.2336 61.5778
CA 0.919824 -11.0765 67.9976
CA 11.1692 0.546732 74.24
CA 1.81094 -11.9941 64.9284
CA 4.72153 -13.7274 68.6532
CA 23.3298 -6.92161 43.1689
CA 12.4459 -40.8563 62.4744
CA 24.0305 -2.40784 67.9062
CA -11.5132 -35.0057 51.5594
CA 26.601 -18.0432 64.1936
CA 8.64678 -15.3152 62.6435
CA 33.1068 -13.3848 60.6839
CA 22.8663 -15.2503 59.4702
CA 10.0934 20.3767 81.1006
CA -12.2152 -37.5437 54.3421
CA 24.07 -6.67881 47.8188
CA 10.5931 -31.8189 40.0055
CA 3.68301 -2.84869 45.3899
CA 19.519 -31.6677 58.6442
CA 12.7276 -11.6271 19.0488
CA 8.81853 -4.69143 46.0807
CA 30.5171 -12.159 60.9175
CA 4.06452 -30.9688 39.3885
CA 10.486 25.2495 83.3159
CA 0.900033 -14.2573 59.7023
CA 10.0357 -8.70287 58.2126
CA 13.7249 -34.0887 56.8561
CA 26.884 0.312336 48.7749
CA -15.1166 -21.1881 46.8763
CA 11.5314 -19.3496 62.2
CA 23.2076 -2.07771 46.4188
CA -6.44974 -22.1353 33.8166
CA -0.718108 24.1936 68.0774
CA 17.1914 -9.9465 16.8067
CA 8.61132 -32.1444 52.7343
CA 7.15596 -37.8077 62.9428
CA 17.4234 -17.5567 65.726
CA 1.80809 -3.13023 54.3732
CA 10.8311 1.05508 69.7344
CA 24.954 -21.2075 40.3435
CA 18.0709 -30.1457 49.5628
CA 18.9473 -25.9144 64.4248
CA 29.0054 -16.4627 51.5757
CA -1.03011 -50.527 69.363
CA 32.0508 -22.2901 60.428
CA 9.03082 -15.8309 52.212
CA 0.696195 -3.37146 45.9779
CA 9.91417 -35.8587 39.9055
CA 0.931903 -23.2505 40.4208
CA 8.93793 -32.5507 56.53
CA 14.9191 12.7691 76.6258
CA -6.91279 -34.8477 66.6498
CA 6.23472 -33.9204 56.3522
CA 28.7131 -17.8713 55.0752
CA 17.8559 -25.7673 48.3947
CA 9.5801 -41.6349 60.516
CA -16.3866 -9.65239 54.8425
CA -12.9321 12.4844 46.3151
CA -11.1788 -8.71622 55.8435
CA 14.4227 -17.2614 68.4802
CA 19.8764 -6.74308 23.6614
CA 18.053 34.3192 63.4645
CA 19.0204 -6.29967 21.5086
CA 19.2529 -9.8156 59.9416
CA -3.46135 -44.568 57.6312
CA -9.99567 -11.4447 38.5118
CA 30.6999 -22.4952 30.7435
CA 14.6549 7.80255 75.5479
CA 5.94575 1.20653 57.0568
CA 30.1081 -18.2811 38.8051
CA 25.4575 -8.82614 38.2626
CA 31.0736 5.61148 50.0276
CA 20.1018 -11.7923 25.9552
CA 22.5685 -26.3182 43.176
CA 21.1532 -7.57015 31.2922
CA 5.55727 -33.4011 62.7566
CA 6.31533 -30.4024 58.8503
CA 22.7258 -0.246371 71.4965
CA -7.0449 4.17787 50.0524
CA 24.6009 -22.7869 35.453
CA -16.978 -7.22512 52.3607
CA 23.7993 -27.5744 63.5857
CA -5.61554 -36.5589 56.0429
CA 15.461 13.6373 78.2202
CA 6.47614 -41.632 61.2346
CA 3.97457 -9.07245 59.7762
CA -12.2701 -23.5506 32.2962
CA 15.8463 -19.3599 57.8449
CA -2.59608 -18.1586 46.0876
CA 34.426 4.89632 52.2917
CA 9.05387 -10.288 57.3458
CA 12.2199 29.6255 64.3144
CA 7.1485 -1.77523 53.1014
CA 16.016 -18.5304 11.2813
CA -11.7142 -4.85856 52.2433
CA 7.32201 -13.666 55.9818
CA 18.6801 -17.3439 34.8973
CA 7.37733 -44.1318 61.6335
