489

CA 11.2313 15.6611 83.1122
CA 28.3988 -23.413 49.5979
CA 12.273 2.92775 57.9919
CA -3.16435 -16.6287 70.0039
CA 16.0444 -4.10728 59.8308
CA 8.76002 -14.5293 13.5239
CA 10.5901 0.472998 71.55
CA 26.78 -24.7063 50.9898
CA -8.93982 -0.941652 46.2763
CA 18.6054 -20.7741 61.8657
CA 16.7719 -19.8251 12.4166
CA -8.83393 -5.71076 41.5197
CA 10.8478 -19.1252 53.8861
CA 1.8801 -25.5931 67.9978
CA -2.77709 22.9621 64.6097
CA 25.861 -25.806 36.0377
CA 17.5893 28.6514 57.294
CA 8.78598 -28.296 56.6558
CA 7.29263 -10.6121 69.4643
CA 1.05572 23.2124 70.1002
CA 16.3477 -38.7302 59.3501
CA 26.0461 -7.99247 43.6124
CA 17.8692 -6.12359 19.1293
CA 30.673 -18.5282 34.3411
CA 13.506 -30.3845 37.7918
CA 32.1161 -17.124 31.3005
CA -13.4004 -42.9236 56.6265
CA 33.1984 -20.78 37.7462
CA 19.3216 11.8422 69.4244
CA 28.2197 -19.1404 61.0283
CA 6.23977 -33.0867 66.3666
CA 11.043 -19.0223 64.2703
CA -4.38551 -36.1905 58.0478
CA 44.3238 -12.6443 58.654
CA -8.31036 -37.9108 60.1646
CA -6.99794 -47.4663 66.9951
CA 21.7691 -17.8599 33.3963
CA -0.434478 -28.1561 40.9818
CA 31.6144 -23.8113 61.5953
CA -10.6205 -0.00531696 47.3344
CA 7.809 -37.0684 60.5704
CA 4.1174 -28.0155 41.6703
CA 17.101 1.26502 78.1986
CA 19.8007 -12.937 31.7477
CA 26.1186 -24.7675 45.6403
CA 8.98209 -12.5099 40.0875
CA -0.0693359 -27.2536 36.7929
CA 11.9288 -48.763 54.3233
CA 17.3128 -5.05516 51.8433
CA 11.4646 -26.8827 56.3707
CA 15.3452 -26.8902 50.3015
CA 17.78 8.88619 69.4014
CA -2.47008 -26.3926 42.0759
CA 15.0364 -6.92102 74.5597
CA 22.5782 -25.6782 45.2933
CA 20.8744 -13.1501 67.0638
CA 6.48895 -25.3679 57.3324
CA -0.200181 -31.669 33.9765
CA 17.2229 -20.5866 33.0833
CA 13.2265 27.5207 66.3463
CA 23.7978 4.44111 54.0631
CA 30.0414 -5.16956 71.668
CA -8.90302 -3.36362 47.2156
CA 25.8307 -22.949 46.8895
CA -7.47521 2.25119 51.7627
CA 23.5151 -2.37305 71.4603
CA 4.71951 -45.8384 63.8864
CA 15.9582 9.76422 73.9219
CA 7.315 -15.8916 55.6795
CA 20.3654 -25.6488 37.5083
CA 11.7711 21.1254 67.1766
CA -5.30158 -11.2273 36.3182
CA 2.94092 -44.8575 69.8736
CA 21.9504 8.22258 44.0803
CA 22.1943 2.71127 54.9955
CA -6.6474 -38.1454 53.8678
CA -12.2338 -5.70198 53.0686
CA 21.2878 -11.4268 30.5804
CA 8.02773 29.2295 69.1978
CA 39.9142 -10.1843 61.1016
CA 9.61873 -4.10363 65.6361
CA -3.12238 -39.3333 50.7862
CA 17.6876 30.3473 61.4905
CA 4.8676 -43.4122 63.6311
CA 16.6069 -38.6136 57.5166
CA 38.21 -7.54457 57.3705
CA 16.39 -12.0978 50.3391
CA 19.8652 -15.3618 28.3206
CA 32.5596 -19.096 60.8259
CA 10.0569 -3.71462 49.2399
CA 21.0425 -32.784 54.0453
CA -4.83135 -6.16908 44.4672
CA 17.7934 -14.7088 67.9592
CA 46.153 -18.6851 58.1806
CA 16.2308 -12.627 60.5608
CA 15.9753 -15.1974 29.6949
CA 4.01793 -43.0716 50.7932
CA 24.1921 -34.2418 45.3899
CA 7.52351 17.8375 74.2261
CA -8.75785 -0.182228 52.0392
CA -10.9943 -33.2972 50.4292
CA 24.3222 -29.69 45.7644
CA 8.33398 2.11202 73.4729
CA 12.689 -26.9218 50.5022
CA 19.28 -33.81 58.0142
CA 20.6311 -35.0522 59.4265
CA 20.6207 -18.9481 57.1248
CA 3.88727 -41.5255 62.8823
CA 26.4899 -13.6813 61.8119
CA 16.9315 -31.647 58.2645
CA 25.2069 -27.4589 37.6381
CA 21.4346 -29.5518 59.7061
CA 16.3292 -12.5713 36.848
CA 14.708 -11.4892 56.2829
CA 12.6143 -15.2058 64.238
CA 14.0972 -15.8352 17.1988
CA 6.33157 -23.4485 40.837
CA -5.39791 -5.21165 47.054
CA 4.81804 -39.1087 61.9334
CA 17.0166 -11.2235 23.3431
CA 12.4942 -4.87251 70.8188
CA 21.4365 -23.9076 47.242
CA 21.7403 -15.9575 39.4954
CA 37.302 -15.2717 61.7398
CA 11.725 6.646 78.8458
CA 46.2739 -7.54956 64.7856
CA 0.098482 -37.0325 55.4537
CA 21.5234 -16.2266 71.5105
CA 15.5279 -10.482 67.2809
CA 22.8023 -14.654 32.9505
CA 36.9674 -2.5975 46.7237
CA 24.359 10.744 85.5137
CA 34.9241 -20.981 61.6676
CA -2.86164 -3.43664 50.1651
CA -15.2564 -33.1455 49.0189
CA -5.86663 -42.2357 57.3327
CA 1.18453 -40.9531 51.0733
CA 17.5567 -19.5804 59.7524
CA 13.7981 28.7032 69.7941
CA 18.5472 -9.49451 57.1448
CA -13.7803 -25.8113 42.6146
CA 16.4969 -5.11589 17.5672
CA 7.66343 32.5024 66.6496
CA 15.6843 -12.5639 66.9212
CA 14.9879 -20.7985 38.4854
CA 14.6667 -5.43397 71.417
CA 10.3371 20.3635 61.2799
CA -5.56027 -45.2099 51.0159
CA 11.7004 24.4243 71.7407
CA 29.4131 -0.284337 48.8926
CA 46.167 -15.5929 53.5387
CA 2.29787 0.837237 79.6776
CA -6.36587 -5.70254 45.4677
CA 4.5822 24.3103 68.6897
CA -2.09112 -43.7491 51.922
CA 10.7929 -12.3291 60.2689
CA -5.01303 -35.0207 62.6851
CA 16.6003 -7.36813 23.3714
CA 12.3338 -16.9957 41.407
CA -3.74686 -42.6963 59.5576
CA -1.24213 -51.9343 67.4375
CA 22.8725 -5.37526 51.034
CA 45.5611 -3.22934 58.5921
CA -8.24314 -29.8755 49.6936
CA 19.945 -30.1133 55.1461
CA 6.41271 -1.14394 57.5743
CA 6.1421 -12.1897 40.4891
CA 13.0262 -4.88937 43.9731
CA 15.622 -22.4109 51.3726
CA 21.1808 -34.6188 45.0881
CA -7.55144 -5.92907 61.0014
CA 16.9677 -5.89767 70.4904
CA 7.03982 -1.36415 65.8728
CA 30.6072 -23.8265 57.9018
CA 36.9889 4.00473 52.9932
CA 33.0865 -6.3947 72.5075
CA 15.5054 -14.9519 27.3102
CA -8.46718 -4.00292 45.1933
CA -13.9197 2.59672 52.1052
CA 18.3487 -15.824 64.5466
CA 25.2317 7.70451 47.4801
CA 31.2815 -7.8969 64.7304
CA 21.5032 -15.5999 68.6628
CA 11.8649 20.8842 75.6361
CA 18.2391 -38.445 61.3746
CA 21.7041 -36.6111 45.3506
CA 17.7926 -25.1515 46.4488
CA 15.0069 -8.57251 56.1468
CA 0.848014 -41.5459 66.685
CA 3.64853 29.79 65.2876
CA 17.8986 7.33005 71.1365
CA 20.259 -6.26826 16.57
CA 19.7981 -18.1588 41.711
CA 15.926 -12.4652 34.229
CA 12.9092 26.1506 61.532
CA 12.5563 -8.62139 34.3078
CA 23.3301 -23.1145 64.9421
CA 11.9173 -5.58184 73.0585
CA 26.7299 -23.3553 56.4589
CA 8.24869 30.5509 67.8857
CA 10.2965 -35.5952 42.3836
CA 14.9282 -8.1406 34.8025
CA 8.13081 17.3801 72.3818
CA 27.7696 -21.6576 57.2662
CA -11.4075 -2.49124 45.7051
CA 12.9737 27.9251 74.8375
CA 15.6577 -33.6498 58.3785
CA -6.33157 -45.98 63.8001
CA -4.25655 -47.7465 65.0993
CA -10.3756 -10.0573 52.2264
CA 5.09771 -42.339 67.433
CA 5.10496 -25.9147 55.7557
CA 33.9315 -10.0963 57.3129
CA 7.42688 -12.8949 57.7489
CA 5.75887 -34.177 67.9003
CA -7.78063 -30.4699 47.4677
CA -0.410642 -45.6849 71.894
CA -2.61489 -40.255 49.1379
CA 26.5582 -18.3169 39.7291
CA 31.177 -3.89818 64.3593
CA 12.1808 -24.0098 60.0202
CA 20.2652 -10.0676 28.323
CA 12.3407 25.5944 82.0487
CA 32.4234 -19.9498 34.7314
CA 17.5813 -3.68265 71.1946
CA -7.28832 -5.92253 42.8569
CA 28.7117 -14.01 62.6006
CA 14.961 -0.960611 73.4244
CA 10.9471 -45.7306 56.1913
CA 11.7393 -27.4981 54.171
CA -8.40989 -36.3833 62.8033
CA 28.1024 -9.794 39.5929
CA -1.42741 -36.4089 58.7162
CA -2.1449 -46.8737 64.0133
CA 15.0573 26.0616 61.6858
CA 23.4985 0.833882 65.9567
CA -6.82984 -47.2212 51.6001
CA 13.5939 -29.0983 61.6231
CA 18.4671 -31.6893 45.7237
CA -1.60933 -47.5441 67.028
CA -9.91833 -5.21397 46.6659
CA -13.0998 -4.0157 48.703
CA 16.489 14.6423 76.5234
CA 28.3581 7.092 48.3681
CA -4.18594 -44.2644 48.491
CA 24.1824 -30.7133 61.8037
CA 10.4879 -3.67851 58.3873
CA -13.706 -25.6772 39.5695
CA 29.3337 -5.72961 65.6426
CA 18.9913 -13.1702 54.2301
CA 14.2856 -6.91133 58.5714
CA 9.53607 23.7063 70.5449
CA -1.46683 -24.2166 41.0292
CA 17.0334 -35.8977 57.5064
CA 14.5751 -13.4551 59.2123
CA 13.6181 -28.2691 53.038
CA 26.75 -9.56508 58.8728
CA -9.58059 1.7479 52.5192
CA 10.0594 -23.1251 56.3527
CA 8.05406 -23.59 57.254
CA -1.57241 -49.7742 69.5902
CA 27.4534 -4.98602 63.7692
CA 2.99098 -26.3047 57.9683
CA -7.79544 -35.3246 55.681
CA 10.4955 30.9883 71.4527
CA -13.6882 -25.0772 36.0384
CA -2.62771 -9.92704 43.5369
CA 14.6925 -21.6729 66.5836
CA 15.3596 -2.63256 63.8855
CA 5.848 -22.9761 61.2017
CA 16.8296 -4.2461 76.0346
CA -7.96668 -46.3281 65.6392
CA 27.9248 -0.434634 72.2626
CA 2.28259 -12.1409 44.8249
CA -16.4385 -41.0152 59.9278
CA 15.3303 -11.3646 52.9676
CA 5.54313 -23.2768 58.1481
CA 25.4764 -3.77283 41.7849
CA 23.5319 -24.7284 56.9906
CA 6.34186 -45.07 63.5863
CA 11.6746 29.2405 78.9624
CA 20.2594 -28.2494 57.3016
CA 11.768 -10.0465 52.7339
CA 2.89998 -13.1095 60.1989
CA 2.04481 -15.6504 69.2465
CA -11.9198 15.9201 45.2141
CA 32.3673 -25.6833 51.6224
CA 40.3697 -10.2672 65.3614
CA 19.3816 -2.96118 72.0786
CA 53.0101 -18.9982 58.691
CA 21.3884 -8.76018 53.3584
CA 9.08682 30.5673 70.2749
CA 8.46569 1.46117 60.1377
CA 18.9769 -12.6401 60.9146
CA 13.8177 -15.6961 62.1961
CA 21.6565 2.58487 58.8092
CA 18.7829 -8.01144 59.3025
CA 28.5979 -21.2708 48.9374
CA 18.637 0.920011 72.456
CA 14.1342 -7.26284 55.1071
CA 19.7767 -12.763 62.5444
CA 19.8225 12.4454 86.7209
CA 16.7448 -7.65841 57.2717
CA -0.0566917 -34.8978 41.6004
CA -10.8052 -36.751 61.2525
CA 14.2262 -10.7757 58.7178
CA 19.2713 -1.96907 57.5449
CA 1.85028 -27.3517 34.9722
CA 24.1657 -14.3872 37.9102
CA 18.1912 -19.8151 18.83
CA 8.86247 -11.8903 67.9226
CA -0.336048 -15.781 38.0174
CA 33.7703 2.43415 49.0745
CA 14.923 5.9771 75.6663
CA 17.2394 -5.74038 21.8097
CA 19.9955 28.9867 55.5337
CA 15.9463 -19.6166 44.8283
CA 31.9475 -5.80313 68.895
CA -10.9401 -11.4512 53.963
CA 16.7493 -9.38955 33.8679
CA -17.8579 -10.5599 53.1501
CA 41.735 -8.71417 62.1232
CA -6.84015 -2.22775 56.4237
CA 38.1965 -5.65221 61.8927
CA -4.64198 -41.6337 52.5674
CA 18.0641 16.7023 74.4479
CA -9.305 -26.872 45.0618
CA -5.77138 -35.9748 52.2567
CA 27.5403 -19.226 67.8799
CA 14.9286 23.8252 59.5918
CA 18.5746 -20.5613 36.743
CA -12.3387 -25.5644 40.9513
CA 47.9836 -15.677 58.8679
CA -7.67392 -7.32514 41.0576
CA 15.584 -15.1618 38.4764
CA 36.5858 0.564726 46.0978
CA 19.8694 -27.781 59.8284
CA 25.2608 -10.9006 39.4796
CA 16.0104 23.779 72.5676
CA 10.6061 22.8273 77.8915
CA 12.4431 -21.0968 50.8963
CA 13.5804 10.1835 77.1223
CA -1.206 -28.8803 64.5059
CA 47.3246 -18.5907 61.8947
CA 27.9742 -8.7003 68.007
CA 15.308 13.9732 83.988
CA -10.7172 -38.6117 59.356
CA -0.821349 -36.7957 43.7504
CA 3.01081 -44.6924 64.6929
CA -6.51512 -38.3566 52.0816
CA 12.0423 -13.4771 17.0542
CA 24.9283 -5.53691 46.1939
CA -3.1762 -19.4925 41.0369
CA 1.79082 -25.3267 62.593
CA 17.4198 -13.8625 49.6114
CA 13.7433 -27.0235 60.1402
CA 6.87165 31.9708 68.5588
CA -0.983403 18.2688 66.3955
CA 8.79035 -29.686 40.6303
CA 13.3483 22.0888 69.0635
CA 22.6779 -2.2482 37.3219
CA 10.2894 -41.0055 58.9304
CA 22.8162 -8.53904 38.7877
CA 32.2734 -21.5166 62.3653
CA -9.96814 -24.644 34.6508
CA -4.24648 -18.0417 70.7803
CA -9.6744 -38.2416 53.2558
CA 25.236 -2.6219 48.4384
CA 18.2506 -6.85978 65.4008
CA 36.4964 -21.1777 58.4424
CA 20.8665 -4.70095 73.9991
CA 27.4422 -24.6062 63.0329
CA -3.20109 -49.0238 69.2675
CA -11.6437 -21.4742 32.0227
CA 14.5129 -5.44803 37.2969
CA -7.53318 -34.6411 51.6023
CA 13.3757 -8.76252 68.368
CA 3.71582 -27.4483 38.4527
CA -3.76092 -40.9027 47.0775
CA 21.9615 -11.1252 39.1771
CA 11.3126 -33.4694 40.4795
CA 27.1003 8.41443 46.801
CA 7.33146 34.2701 61.7574
CA 18.6234 -14.0189 17.0066
CA 5.9048 -29.2231 65.5559
CA 10.3173 -31.3986 54.6771
CA 14.2124 -41.0519 58.9377
CA 9.92665 -25.7024 60.9591
CA 27.9222 -7.97984 41.0437
CA 23.2388 -25.8805 63.98
CA 13.2496 -10.4301 65.8775
CA 15.294 -17.2336 61.5778
CA 16.235 -7.11911 55.0869
CA 11.1692 0.546732 74.24
CA 1.81094 -11.9941 64.9284
CA 28.0072 -20.3565 35.4762
CA 12.4106 16.5571 75.7445
CA -0.328869 -28.3596 35.3933
CA 24.0305 -2.40784 67.9062
CA 14.225 -15.01 43.2063
CA 37.6529 -4.83349 59.9342
CA -10.3483 -35.7175 50.3531
CA 16.1756 -9.55206 58.344
CA 13.0203 3.32632 73.6952
CA 14.5365 14.5641 81.2394
CA 16.4443 -11.6237 72.4223
CA -4.90194 -13.5166 35.9147
CA 10.5931 -31.8189 40.0055
CA 14.0495 13.2351 79.6926
CA 20.9639 -8.06092 58.5565
CA 17.3885 -17.0081 22.2536
CA 12.7321 -1.4466 75.925
CA 30.5171 -12.159 60.9175
CA 4.06452 -30.9688 39.3885
CA 10.486 25.2495 83.3159
CA 26.3999 -27.393 49.5239
CA 17.2447 -9.62204 54.62
CA 9.8791 -31.2225 41.918
CA -0.344085 -45.9814 59.6267
CA 0.948338 -32.6546 42.3458
CA -3.15805 -44.7252 59.9181
CA 23.2076 -2.07771 46.4188
CA -6.44974 -22.1353 33.8166
CA -0.718108 24.1936 68.0774
CA 17.1914 -9.9465 16.8067
CA 1.36019 -13.3758 40.4479
CA 7.15596 -37.8077 62.9428
CA 17.4234 -17.5567 65.726
CA 13.734 -17.0864 24.5917
CA 10.0849 -14.9492 62.3995
CA 3.7584 -46.4934 68.2527
CA -5.89162 -43.1028 50.8476
CA 10.0414 -3.74004 72.0341
CA 12.0861 24.1836 61.3138
CA 11.6487 -29.4725 58.4174
CA 32.0508 -22.2901 60.428
CA 8.10865 22.3298 69.9838
CA 13.7638 -15.7219 59.7112
CA 22.7459 -9.72891 49.4764
CA 0.931903 -23.2505 40.4208
CA 21.905 -26.9251 62.0069
CA 14.9191 12.7691 76.6258
CA -12.2596 -8.67017 53.5534
CA 12.7229 -13.6416 35.6432
CA -11.4341 -28.4004 36.3881
CA 17.8559 -25.7673 48.3947
CA 9.5801 -41.6349 60.516
CA -16.3866 -9.65239 54.8425
CA -12.9321 12.4844 46.3151
CA 30.6609 3.84356 50.3377
CA -12.5542 -37.217 62.8786
CA 19.8764 -6.74308 23.6614
CA 18.053 34.3192 63.4645
CA 19.0204 -6.29967 21.5086
CA 19.2529 -9.8156 59.9416
CA -13.081 -44.0076 65.1838
CA 8.39932 19.0381 70.3915
CA -1.00413 -29.884 38.1228
CA 14.6549 7.80255 75.5479
CA -9.2472 -27.1966 32.5931
CA 30.1081 -18.2811 38.8051
CA 25.4575 -8.82614 38.2626
CA -2.60882 -9.54741 63.905
CA 21.5068 -24.5979 60.3921
CA 22.5685 -26.3182 43.176
CA 28.4298 -15.6803 65.4953
CA 7.446 -39.1966 59.7636
CA 14.5958 -7.26059 71.2708
CA 22.7258 -0.246371 71.4965
CA 6.80246 -7.91649 57.4855
CA 16.878 -20.0752 63.6431
CA -16.978 -7.22512 52.3607
CA 23.7993 -27.5744 63.5857
CA 9.68794 -14.1333 57.3533
CA 15.461 13.6373 78.2202
CA 21.4962 -17.0665 43.8325
CA 45.2289 -8.65372 61.8897
CA 24.417 -17.0355 47.0914
CA 15.8463 -19.3599 57.8449
CA 17.2858 -7.81865 17.3927
CA 22.5931 -7.36194 25.5021
CA 9.05387 -10.288 57.3458
CA 12.2199 29.6255 64.3144
CA 7.1485 -1.77523 53.1014
CA 16.016 -18.5304 11.2813
CA 24.3591 -22.9719 50.593
CA 7.32201 -13.666 55.9818
CA 18.6801 -17.3439 34.8973
CA 7.37733 -44.1318 61.6335
