489

CA 11.2313 15.6611 83.1122
CA 28.3988 -23.413 49.5979
CA 19.505 5.38779 74.9312
CA -3.16435 -16.6287 70.0039
CA 18.5053 -24.5179 46.4573
CA 28.1624 -18.247 63.1671
CA 3.83507 24.815 85.4766
CA 26.78 -24.7063 50.9898
CA -8.93982 -0.941652 46.2763
CA 17.2253 20.1728 72.1036
CA 29.5248 -26.2506 47.0424
CA -6.98255 -5.93876 47.7896
CA 13.2603 21.2512 66.0675
CA 19.9775 -10.6739 48.6557
CA 23.5129 -36.0776 59.4632
CA 25.861 -25.806 36.0377
CA 10.7751 -7.20846 54.3919
CA 1.49398 -13.9109 67.3817
CA 20.4232 -38.4265 58.7359
CA 1.05572 23.2124 70.1002
CA 23.7258 -17.2437 28.5139
CA 7.99353 -36.0747 59.367
CA 17.8692 -6.12359 19.1293
CA 16.2226 -36.9332 53.5973
CA 13.506 -30.3845 37.7918
CA 16.9271 -7.41511 14.6814
CA -13.4004 -42.9236 56.6265
CA 19.1494 -27.3686 54.7478
CA 19.3216 11.8422 69.4244
CA 11.7064 -14.0304 62.2982
CA 14.5133 -15.9199 36.5705
CA 11.043 -19.0223 64.2703
CA 29.325 -24.5439 50.7616
CA 44.3238 -12.6443 58.654
CA 10.73 1.63257 61.9294
CA -2.93325 -7.06798 59.9274
CA 7.77175 -32.1461 44.1433
CA -10.7581 -26.6183 42.2387
CA 17.5437 -21.713 39.3164
CA -10.6205 -0.00531696 47.3344
CA 22.3952 -10.9833 35.8346
CA 4.1174 -28.0155 41.6703
CA 0.102555 -18.0431 36.6213
CA 19.8007 -12.937 31.7477
CA -2.88414 -53.7139 66.0654
CA 19.7044 -15.1749 35.9839
CA -0.0693359 -27.2536 36.7929
CA 11.9288 -48.763 54.3233
CA 11.2476 -32.5721 42.457
CA 10.2038 -10.2206 60.9273
CA 15.3452 -26.8902 50.3015
CA 43.8816 -10.0132 62.4059
CA 15.5573 2.55968 70.9291
CA 13.3864 -8.73972 17.242
CA 22.5782 -25.6782 45.2933
CA 21.7062 -13.6859 59.2175
CA 12.3569 28.9273 64.1226
CA 9.96264 -15.6025 55.9098
CA 18.2222 -19.8735 53.2707
CA 9.37915 -48.9899 54.1587
CA -9.73711 -47.572 61.1216
CA 30.0414 -5.16956 71.668
CA 12.4035 -27.7379 39.6602
CA 10.5632 -11.2008 17.7094
CA -7.47521 2.25119 51.7627
CA 24.6968 -15.676 42.6544
CA 26.0606 -3.53864 73.2753
CA 15.9582 9.76422 73.9219
CA 17.9189 -35.5366 55.2311
CA 20.3654 -25.6488 37.5083
CA -5.01699 -46.5659 51.7163
CA -5.30158 -11.2273 36.3182
CA 49.3354 -18.651 54.6439
CA 21.9504 8.22258 44.0803
CA 22.1943 2.71127 54.9955
CA 7.91033 -34.496 43.9988
CA -12.2338 -5.70198 53.0686
CA 35.2895 -13.7602 61.4567
CA 45.2254 -1.73429 64.4224
CA 39.9142 -10.1843 61.1016
CA 18.1415 -5.2995 16.1812
CA -3.12238 -39.3333 50.7862
CA 17.6876 30.3473 61.4905
CA 6.84658 -35.0363 62.6454
CA 16.6069 -38.6136 57.5166
CA 11.0008 -9.6881 52.1346
CA 16.39 -12.0978 50.3391
CA 19.8652 -15.3618 28.3206
CA 32.5596 -19.096 60.8259
CA -8.98845 -28.8762 42.8662
CA 12.4006 -9.54567 61.1025
CA -4.83135 -6.16908 44.4672
CA 21.0087 -15.0713 64.572
CA 46.153 -18.6851 58.1806
CA 14.1624 -8.40804 59.6448
CA 24.982 -6.08415 57.1033
CA 50.2499 -21.6487 66.4015
CA 16.4917 -36.6041 62.3584
CA 7.52351 17.8375 74.2261
CA 12.6021 -6.48192 67.3826
CA 23.4263 -8.8784 47.0697
CA 24.3222 -29.69 45.7644
CA 8.33398 2.11202 73.4729
CA 22.7687 -29.0236 58.4276
CA 17.5176 -13.0045 44.9153
CA 20.6311 -35.0522 59.4265
CA 20.6207 -18.9481 57.1248
CA 14.7747 -22.0708 62.7566
CA 26.4899 -13.6813 61.8119
CA 46.2386 -15.265 55.9243
CA 25.2069 -27.4589 37.6381
CA 21.3442 -21.8643 44.2991
CA 20.2484 -25.7964 48.5209
CA 14.708 -11.4892 56.2829
CA 12.6143 -15.2058 64.238
CA 2.90283 -11.054 59.0093
CA 13.733 -23.7483 58.5576
CA -5.39791 -5.21165 47.054
CA 18.779 28.4091 62.0495
CA 5.5073 -26.1935 58.4119
CA 12.4942 -4.87251 70.8188
CA -12.2652 -35.7221 60.9557
CA 11.761 -24.9324 41.1938
CA 13.5078 -35.9004 62.0814
CA 11.725 6.646 78.8458
CA 46.2739 -7.54956 64.7856
CA 22.8749 -6.61724 79.0236
CA 12.3707 7.90724 76.4681
CA 15.5279 -10.482 67.2809
CA 22.8023 -14.654 32.9505
CA 3.73251 -42.6208 46.3553
CA 24.359 10.744 85.5137
CA 13.6629 -18.1527 15.8415
CA 16.3575 -36.7058 57.0744
CA 8.74785 7.44419 79.0996
CA -5.86663 -42.2357 57.3327
CA 9.87637 -3.46067 51.2809
CA 17.5567 -19.5804 59.7524
CA -1.36368 -8.69973 34.9394
CA 18.5472 -9.49451 57.1448
CA 26.7974 4.18032 51.855
CA 16.4969 -5.11589 17.5672
CA 11.4826 -13.483 49.575
CA 32.129 -7.99772 68.3426
CA -5.07294 -32.7215 54.2174
CA 26.9668 5.78415 49.8885
CA 44.1113 -7.34991 66.3449
CA 22.5731 -16.6277 30.8365
CA 11.7004 24.4243 71.7407
CA 48.9821 -19.4062 66.2346
CA 46.167 -15.5929 53.5387
CA 11.9398 -16.3161 50.3943
CA -6.36587 -5.70254 45.4677
CA 4.5822 24.3103 68.6897
CA -2.09112 -43.7491 51.922
CA 25.8911 -16.5119 60.3982
CA -10.1186 -45.1173 63.1789
CA 10.903 -20.9165 64.4056
CA 26.8444 0.482408 54.1911
CA -3.8396 -8.75422 34.151
CA -1.24213 -51.9343 67.4375
CA 15.2888 -31.3556 46.7111
CA 49.0482 -19.3489 56.5811
CA -8.24314 -29.8755 49.6936
CA 34.7991 -23.4196 53.1472
CA 19.1723 -10.8516 70.2559
CA 21.6829 -28.6352 53.0335
CA -5.2308 -5.51316 41.151
CA 3.17174 25.9178 68.7701
CA 17.4174 -10.3848 59.9044
CA -7.55144 -5.92907 61.0014
CA 19.8914 -27.7064 68.3785
CA 6.97773 -16.8719 54.5176
CA 21.1193 -14.5329 26.0495
CA 13.2817 -39.2579 62.0588
CA 33.0865 -6.3947 72.5075
CA 16.085 -6.45831 56.8929
CA 14.5201 -7.49465 19.3741
CA -13.9197 2.59672 52.1052
CA -0.649331 -42.6298 61.9626
CA 25.2317 7.70451 47.4801
CA 1.18814 -26.1946 39.3048
CA 21.5032 -15.5999 68.6628
CA 11.8887 -9.28849 56.6453
CA 11.0886 -16.5569 67.3614
CA 13.9468 21.9601 74.7132
CA 12.8327 1.27167 76.1678
CA 15.0069 -8.57251 56.1468
CA 21.1792 -40.1385 58.8491
CA 14.7271 -7.42605 51.5951
CA 45.8862 -11.1903 62.4378
CA 16.8479 -34.8978 61.1146
CA -10.8604 -7.79946 61.2203
CA 24.898 5.53106 50.2112
CA 11.666 27.1359 62.8604
CA 7.72921 -18.9703 58.0118
CA 4.1642 -42.6392 60.2744
CA 43.0258 -14.7153 53.2247
CA -2.89201 -21.2782 43.7225
CA -9.10818 4.18066 45.9214
CA 9.55898 -28.4035 42.8048
CA 14.9282 -8.1406 34.8025
CA 8.13081 17.3801 72.3818
CA 27.7696 -21.6576 57.2662
CA -11.4075 -2.49124 45.7051
CA -0.348927 -47.7034 66.2696
CA 15.6577 -33.6498 58.3785
CA -0.668033 -21.0555 40.6498
CA -4.25655 -47.7465 65.0993
CA 20.9427 -27.7464 47.0476
CA 19.1578 -13.6096 26.1922
CA 14.8505 -23.0246 64.6672
CA 17.6492 -8.13834 30.6347
CA 7.42688 -12.8949 57.7489
CA 5.75887 -34.177 67.9003
CA -7.78063 -30.4699 47.4677
CA 34.3708 -14.8064 58.8815
CA 25.7025 -10.3515 45.4836
CA 26.5582 -18.3169 39.7291
CA 5.02864 -38.2343 59.1058
CA 8.89317 -47.4106 52.8627
CA 20.2652 -10.0676 28.323
CA 12.1935 -13.1356 54.8679
CA 32.4234 -19.9498 34.7314
CA -8.50714 -8.98544 37.3501
CA 12.0534 20.6591 81.1688
CA -5.72564 -28.8141 44.0668
CA 21.1821 -10.8636 73.4623
CA 10.9471 -45.7306 56.1913
CA 17.342 -6.98222 53.3746
CA -8.40989 -36.3833 62.8033
CA -7.5559 -25.3563 46.2494
CA -1.42741 -36.4089 58.7162
CA 37.4149 -7.73351 60.3235
CA 21.5309 -4.86571 44.2862
CA 23.4985 0.833882 65.9567
CA -6.82984 -47.2212 51.6001
CA 13.5939 -29.0983 61.6231
CA -8.67465 -24.2371 45.0379
CA -6.84203 -32.774 48.0974
CA -9.91833 -5.21397 46.6659
CA -13.0998 -4.0157 48.703
CA 19.2545 -23.7652 56.2954
CA 24.3058 7.898 52.3267
CA 14.6855 20.4076 78.1815
CA 22.2706 -14.0558 28.3289
CA 10.4879 -3.67851 58.3873
CA -13.706 -25.6772 39.5695
CA 29.3337 -5.72961 65.6426
CA 18.9913 -13.1702 54.2301
CA 21.6711 -28.0268 67.3261
CA 9.53607 23.7063 70.5449
CA -4.14105 -39.0989 54.599
CA -8.94951 -33.6219 46.2681
CA 9.60552 19.1182 71.8271
CA 21.4243 -3.79229 21.8811
CA 23.7909 -2.64454 35.1787
CA -9.58059 1.7479 52.5192
CA 2.14978 -26.9994 54.1695
CA 17.372 -10.2602 52.9494
CA -1.57241 -49.7742 69.5902
CA 11.116 17.8057 72.8356
CA 2.99098 -26.3047 57.9683
CA 26.165 -27.4081 62.1099
CA 10.4955 30.9883 71.4527
CA 22.6424 -16.3528 36.3532
CA -2.62771 -9.92704 43.5369
CA 14.6925 -21.6729 66.5836
CA 24.9199 -9.39979 61.509
CA 23.3312 -28.0656 56.7348
CA 8.27055 4.17559 73.4262
CA -7.96668 -46.3281 65.6392
CA 27.9248 -0.434634 72.2626
CA 2.28259 -12.1409 44.8249
CA 25.014 -30.6485 65.2085
CA 21.0201 -15.9613 33.5177
CA 5.54313 -23.2768 58.1481
CA 25.4764 -3.77283 41.7849
CA 18.5017 -36.096 59.0556
CA 18.3512 -32.0777 56.2475
CA -10.973 17.1101 42.2956
CA 20.2594 -28.2494 57.3016
CA -8.62362 -38.8813 57.8945
CA 2.89998 -13.1095 60.1989
CA 2.04481 -15.6504 69.2465
CA -11.9198 15.9201 45.2141
CA 32.3673 -25.6833 51.6224
CA 35.7455 -24.8117 53.9225
CA 32.8683 -21.9423 39.9919
CA 36.3075 -12.4445 63.4725
CA 21.3884 -8.76018 53.3584
CA 3.29909 -39.5036 48.5447
CA 8.46569 1.46117 60.1377
CA 18.9769 -12.6401 60.9146
CA 13.8177 -15.6961 62.1961
CA 21.6565 2.58487 58.8092
CA 20.6715 -6.36884 74.9048
CA 14.1967 -5.7895 72.9436
CA -13.9968 -2.18966 50.2479
CA 34.7987 -18.7618 55.8278
CA 15.7003 -9.29461 73.1622
CA 20.7111 -17.248 56.2174
CA 31.0218 -8.89688 70.6796
CA -8.61111 -43.47 58.9536
CA -10.8052 -36.751 61.2525
CA 11.3969 14.9462 73.9843
CA 19.2713 -1.96907 57.5449
CA 10.9806 25.7155 72.9493
CA 3.13679 -34.7382 66.0523
CA 8.00829 25.006 67.9619
CA 8.86247 -11.8903 67.9226
CA -0.336048 -15.781 38.0174
CA 33.7703 2.43415 49.0745
CA 17.9999 -13.871 31.5213
CA 15.3545 11.0573 80.061
CA -0.0571975 -45.197 68.4561
CA 17.7641 -10.5488 54.9048
CA 31.9475 -5.80313 68.895
CA -4.84419 -16.761 66.3068
CA 14.7672 -5.3323 35.8022
CA 20.877 -13.8826 69.1936
CA 41.735 -8.71417 62.1232
CA 9.89234 26.1042 79.652
CA 16.1034 -24.6565 49.3743
CA 8.39453 -11.0894 63.6511
CA 18.0641 16.7023 74.4479
CA 22.7536 -34.3052 57.3818
CA -0.126319 -12.2092 65.4635
CA 18.6899 0.432985 65.0033
CA 18.3721 -15.0253 54.0108
CA 13.5765 -6.4456 48.1242
CA -9.36907 -35.2517 59.6991
CA 47.9836 -15.677 58.8679
CA -7.67392 -7.32514 41.0576
CA -8.20277 -20.3056 46.8987
CA 36.5858 0.564726 46.0978
CA 19.8694 -27.781 59.8284
CA 25.2608 -10.9006 39.4796
CA 19.4328 -30.6402 56.82
CA 10.6061 22.8273 77.8915
CA 12.4431 -21.0968 50.8963
CA 23.932 -14.7927 45.3567
CA 6.8623 -40.79 60.7005
CA -11.3906 1.06926 45.5841
CA 0.610563 -43.4573 60.8486
CA 15.308 13.9732 83.988
CA 24.4272 -22.0735 52.5461
CA 20.0616 -0.282372 69.6415
CA 3.01081 -44.6924 64.6929
CA -6.51512 -38.3566 52.0816
CA 12.0423 -13.4771 17.0542
CA 12.1114 -22.9508 38.353
CA -3.1762 -19.4925 41.0369
CA 17.5986 14.4112 78.4018
CA 17.4198 -13.8625 49.6114
CA 13.7433 -27.0235 60.1402
CA 16.2084 -5.86655 24.3371
CA 17.4153 -5.15203 21.2213
CA 8.79035 -29.686 40.6303
CA 16.6455 28.8509 67.4001
CA -14.0858 -1.61633 39.6876
CA 10.2894 -41.0055 58.9304
CA 25.542 -2.17887 39.3729
CA -11.8684 -9.17083 57.8862
CA -16.1589 -12.5594 55.1531
CA -4.24648 -18.0417 70.7803
CA 24.6493 9.15813 50.678
CA 39.5486 -8.6488 63.1865
CA 26.7488 2.68753 67.2371
CA 27.7951 -26.5396 54.0667
CA 20.8665 -4.70095 73.9991
CA -2.07963 -22.8982 44.2108
CA 15.833 2.30406 73.9076
CA -11.6437 -21.4742 32.0227
CA 12.6374 -20.6264 61.044
CA -7.53318 -34.6411 51.6023
CA 33.9054 -25.2338 37.5507
CA -0.622382 -40.2761 44.213
CA -11.5234 -2.32543 53.8897
CA 12.8732 -11.289 53.3873
CA 3.36153 -13.1345 63.4586
CA 24.7979 -18.0657 36.888
CA 16.1602 3.56879 69.4417
CA 18.6234 -14.0189 17.0066
CA -4.75194 -6.06709 61.1513
CA 23.5898 -14.7315 25.4103
CA 18.0172 -28.4703 66.7724
CA 6.6028 -40.7773 58.282
CA 27.9222 -7.97984 41.0437
CA 23.2388 -25.8805 63.98
CA -15.9788 -5.69839 52.9363
CA 47.2714 -24.227 58.4951
CA 36.8853 -5.07155 62.1545
CA 13.7887 10.3229 74.3119
CA 23.7765 -17.973 39.9575
CA 28.0072 -20.3565 35.4762
CA 10.0357 30.3181 64.8316
CA -0.328869 -28.3596 35.3933
CA 17.6387 -15.3658 23.6164
CA 6.14283 21.1942 68.1447
CA 37.6529 -4.83349 59.9342
CA 16.9234 -1.71243 63.1445
CA 16.1756 -9.55206 58.344
CA 15.2206 8.07386 72.4467
CA 10.7661 28.5799 67.5769
CA -11.7161 -2.69063 42.5609
CA 31.4373 -20.1633 54.1984
CA 21.9318 -19.413 34.2121
CA 13.7652 -6.66603 63.1012
CA 20.9639 -8.06092 58.5565
CA 17.3885 -17.0081 22.2536
CA 27.38 -18.8584 50.0167
CA 30.5171 -12.159 60.9175
CA 4.06452 -30.9688 39.3885
CA 18.3198 -15.4882 37.4822
CA 12.0431 16.5776 70.6661
CA -5.85255 -16.3157 47.0089
CA 30.6306 -3.69175 69.1987
CA -8.66924 -26.0195 50.046
CA 19.054 -9.18479 16.5802
CA 1.54215 -50.0119 69.4198
CA 34.9194 -18.5699 58.0042
CA 16.3918 0.329924 71.5364
CA 9.65876 -42.5244 65.0288
CA 17.1914 -9.9465 16.8067
CA 3.39838 -13.1184 72.6916
CA 16.6029 -16.9432 35.8549
CA 17.4521 -1.69559 71.7019
CA 13.734 -17.0864 24.5917
CA 10.0849 -14.9492 62.3995
CA -7.14543 -34.4158 44.9299
CA -5.89162 -43.1028 50.8476
CA 10.0414 -3.74004 72.0341
CA 15.15 2.89754 59.1209
CA 11.6487 -29.4725 58.4174
CA -0.493028 -45.6187 57.3067
CA 5.54819 -27.8293 56.7823
CA 8.08923 25.7322 83.073
CA 22.7459 -9.72891 49.4764
CA 16.2985 -34.6154 56.6921
CA 21.5889 -14.1967 54.8448
CA 14.9191 12.7691 76.6258
CA 11.8528 17.4356 75.8824
CA 46.2195 -5.58257 67.5179
CA -7.23185 -40.8019 59.8354
CA 12.6229 -16.9185 18.4909
CA 12.9468 -8.04677 57.527
CA -16.3866 -9.65239 54.8425
CA 19.9624 -37.439 54.7049
CA 30.6609 3.84356 50.3377
CA 5.83196 25.1325 70.9066
CA 19.8764 -6.74308 23.6614
CA 18.053 34.3192 63.4645
CA 19.0204 -6.29967 21.5086
CA 5.23094 27.3781 67.6684
CA -13.081 -44.0076 65.1838
CA 5.01776 -36.9059 63.0679
CA -1.00413 -29.884 38.1228
CA 18.6192 -6.76403 60.8867
CA 1.0084 -39.4105 50.1556
CA -0.856854 -18.3451 38.4593
CA -9.67049 -31.3514 47.6484
CA -2.60882 -9.54741 63.905
CA 21.5068 -24.5979 60.3921
CA 2.23385 -28.7735 58.7972
CA 14.9272 -11.9638 46.178
CA 7.446 -39.1966 59.7636
CA -5.21689 -28.4763 40.4687
CA 22.7258 -0.246371 71.4965
CA 6.80246 -7.91649 57.4855
CA 3.38652 -26.6561 38.6833
CA -16.978 -7.22512 52.3607
CA 25.4297 -16.0995 36.5653
CA 15.8307 -14.7065 33.2624
CA 18.4456 -11.0644 47.6079
CA 18.7374 -25.0032 63.2499
CA 45.2289 -8.65372 61.8897
CA 28.0135 -5.03317 53.5106
CA 24.3681 -16.7753 45.0985
CA 17.2858 -7.81865 17.3927
CA 22.5931 -7.36194 25.5021
CA 9.05387 -10.288 57.3458
CA -12.8798 -6.3141 43.1821
CA -10.0227 -22.761 46.8684
CA 25.7727 7.44939 50.087
CA 24.3591 -22.9719 50.593
CA 7.32201 -13.666 55.9818
CA 18.6801 -17.3439 34.8973
CA 0.544766 -26.0556 44.4621
