489

CA 7.52139 26.3543 66.4033
CA 35.2144 -8.79544 56.763
CA 25.4879 -16.1286 39.2118
CA 13.6665 16.7805 66.2936
CA 13.5038 -19.3617 36.6976
CA 12.2159 -21.1642 65.672
CA 12.135 -6.47923 20.7636
CA 8.89556 -5.14483 56.9281
CA -16.2141 -7.44185 46.1435
CA 12.2016 -47.1015 55.1227
CA 20.3553 -20.2003 50.1991
CA -1.36453 -39.9471 45.6438
CA 13.2603 21.2512 66.0675
CA 11.505 -17.9304 17.1483
CA 23.5129 -36.0776 59.4632
CA 14.7022 -14.2037 28.2685
CA 43.6411 -6.1497 59.6847
CA 1.49398 -13.9109 67.3817
CA 16.5392 -1.70254 17.9256
CA 4.30927 7.06808 74.4521
CA 23.7258 -17.2437 28.5139
CA 12.1796 19.6984 68.6696
CA 17.8692 -6.12359 19.1293
CA -0.418134 -20.4391 40.9024
CA 0.696815 -13.7273 64.2986
CA 17.2678 -11.1859 56.0937
CA 37.3914 -8.67953 57.9431
CA 19.1494 -27.3686 54.7478
CA 19.3216 11.8422 69.4244
CA 13.5397 -34.5359 52.4804
CA 12.4648 -29.0469 56.0491
CA 15.9492 20.9745 67.044
CA 29.325 -24.5439 50.7616
CA 44.3238 -12.6443 58.654
CA 10.73 1.63257 61.9294
CA -8.09083 -31.4477 50.7643
CA 17.2688 -10.659 40.4537
CA -10.7581 -26.6183 42.2387
CA 17.5437 -21.713 39.3164
CA 11.2693 17.4661 72.2949
CA 22.3952 -10.9833 35.8346
CA 4.1174 -28.0155 41.6703
CA 4.52637 -33.3268 60.4909
CA 19.8007 -12.937 31.7477
CA -2.88414 -53.7139 66.0654
CA 20.6008 -17.2288 34.6484
CA -1.75359 -33.5516 50.2822
CA -2.75422 -17.1104 36.7792
CA 12.6179 -26.3099 46.5914
CA 0.547987 -15.5469 41.8125
CA 14.2778 -18.9219 51.3476
CA 43.8816 -10.0132 62.4059
CA 24.6412 12.6974 44.3827
CA 18.5302 -17.2574 49.3048
CA 46.2136 -19.6262 55.7048
CA 34.5099 -11.6256 57.2412
CA 12.3569 28.9273 64.1226
CA 16.7238 -44.8066 49.2033
CA 9.83453 -20.7931 62.5373
CA 9.37915 -48.9899 54.1587
CA -14.8986 -34.7977 58.8749
CA 30.0414 -5.16956 71.668
CA 12.4035 -27.7379 39.6602
CA 22.1297 -19.202 50.6536
CA 14.5505 -12.5324 53.0123
CA 24.6968 -15.676 42.6544
CA 19.5159 -2.86184 40.1858
CA 25.9465 -0.72162 52.9677
CA 41.44 -6.97925 65.615
CA 20.3654 -25.6488 37.5083
CA 16.8045 -39.6511 59.1105
CA 5.6697 -37.8724 64.8269
CA 49.3354 -18.651 54.6439
CA 21.9504 8.22258 44.0803
CA 12.5577 -31.7561 61.7399
CA 18.6632 11.0739 40.7589
CA 8.2179 -21.5745 37.2125
CA 6.04308 -24.9837 35.232
CA 13.0674 0.463627 36.0198
CA 20.4963 -11.9173 54.8936
CA 18.1415 -5.2995 16.1812
CA -5.81754 -38.9813 61.0993
CA 25.7428 -12.8063 52.9399
CA 6.84658 -35.0363 62.6454
CA 13.4947 -3.22718 52.0522
CA 11.0008 -9.6881 52.1346
CA 16.39 -12.0978 50.3391
CA 2.43354 -48.6715 66.8968
CA 22.6136 -5.65349 48.3011
CA -3.32426 -6.18924 43.314
CA 12.4006 -9.54567 61.1025
CA -4.83135 -6.16908 44.4672
CA 0.672704 -12.3862 72.3561
CA 15.3951 5.54597 73.0755
CA 14.1624 -8.40804 59.6448
CA 4.03266 -49.2092 66.215
CA 4.21891 1.05577 73.2472
CA 11.2422 -13.7974 13.841
CA -3.67728 -38.6309 53.6155
CA 12.6021 -6.48192 67.3826
CA 23.4263 -8.8784 47.0697
CA -3.04972 -18.3906 35.4611
CA 17.9381 -18.4526 57.181
CA 20.4481 -17.8757 20.4586
CA 26.131 -17.9263 42.6963
CA 21.0094 -8.0421 80.4291
CA 20.6207 -18.9481 57.1248
CA 33.334 -15.2413 56.1003
CA 26.4899 -13.6813 61.8119
CA 46.2386 -15.265 55.9243
CA 25.2069 -27.4589 37.6381
CA 22.5286 -24.0571 58.2145
CA 20.2484 -25.7964 48.5209
CA 15.9881 -8.63919 70.0733
CA 22.9618 -25.49 51.2035
CA 2.90283 -11.054 59.0093
CA -4.41423 -9.53358 45.9776
CA 17.429 -10.6963 60.0135
CA 18.779 28.4091 62.0495
CA 19.1807 -5.83641 57.725
CA 7.4363 22.7311 68.5723
CA -12.2652 -35.7221 60.9557
CA 11.761 -24.9324 41.1938
CA 23.241 -40.1336 58.0515
CA 11.725 6.646 78.8458
CA 5.23924 -11.5381 74.5841
CA -0.947932 -3.37685 39.4794
CA 12.3707 7.90724 76.4681
CA 14.0599 19.599 65.3278
CA 22.8023 -14.654 32.9505
CA 3.73251 -42.6208 46.3553
CA 19.2369 -9.8248 50.6381
CA 13.6629 -18.1527 15.8415
CA 20.0349 -29.7435 56.154
CA 8.38285 4.49629 56.9947
CA -5.86663 -42.2357 57.3327
CA 48.4844 -21.4106 58.4328
CA -1.78377 -41.8815 63.905
CA -1.36368 -8.69973 34.9394
CA 33.8983 -11.1812 60.2899
CA 0.0347367 -34.7653 59.2754
CA 16.4969 -5.11589 17.5672
CA -2.81298 -49.3315 62.3589
CA 32.129 -7.99772 68.3426
CA -5.07294 -32.7215 54.2174
CA 26.9668 5.78415 49.8885
CA 24.3345 -3.77704 51.4431
CA -4.26534 -38.7189 58.6173
CA 10.6392 3.13513 70.4284
CA 18.0476 -2.80632 70.0289
CA 1.8189 -32.4674 68.1356
CA 11.9398 -16.3161 50.3943
CA -6.36587 -5.70254 45.4677
CA 24.7837 -19.2716 39.1863
CA -2.09112 -43.7491 51.922
CA 25.8911 -16.5119 60.3982
CA -10.1186 -45.1173 63.1789
CA 10.903 -20.9165 64.4056
CA 19.9302 13.6371 85.0552
CA 29.9823 -19.7726 42.1858
CA -1.24213 -51.9343 67.4375
CA 22.9695 -6.88624 45.9969
CA 49.0482 -19.3489 56.5811
CA 2.09815 -2.336 35.6957
CA 13.0414 -47.6489 50.8266
CA -7.21839 -21.5489 41.3667
CA 20.2679 29.7698 53.3455
CA -5.2308 -5.51316 41.151
CA 17.8616 -34.2323 57.9927
CA 35.5601 -17.187 63.0792
CA -7.55144 -5.92907 61.0014
CA 19.8914 -27.7064 68.3785
CA 28.3064 7.84274 51.5376
CA 50.2 -18.9808 52.7355
CA 16.4727 -6.51363 64.4374
CA 17.8624 -29.3472 51.8167
CA 16.085 -6.45831 56.8929
CA -2.13311 -6.96824 45.061
CA -13.9197 2.59672 52.1052
CA -0.649331 -42.6298 61.9626
CA 2.97103 -13.9255 66.0804
CA 33.348 -10.6058 54.5186
CA 21.5032 -15.5999 68.6628
CA 5.1377 -24.3123 55.9812
CA 17.699 -2.59656 15.7848
CA 0.0278759 -15.4353 72.0486
CA 12.8327 1.27167 76.1678
CA 14.0101 -6.96098 55.0761
CA 21.1792 -40.1385 58.8491
CA 1.28139 -29.7384 60.9998
CA -12.0085 -38.6992 57.6008
CA 16.8479 -34.8978 61.1146
CA -10.8604 -7.79946 61.2203
CA 22.3893 -0.128884 69.7095
CA -6.33372 -22.2494 44.1309
CA 25.6852 -19.1778 41.3139
CA 4.1642 -42.6392 60.2744
CA 8.12708 -6.80394 63.4597
CA -7.67174 -40.2247 55.9943
CA 9.68947 -26.486 36.9603
CA 6.51393 -7.36021 59.9437
CA 14.9282 -8.1406 34.8025
CA 14.3521 -4.70431 53.1172
CA 11.0264 -33.0492 58.8481
CA -11.4075 -2.49124 45.7051
CA 15.5807 17.9906 79.6827
CA 15.6577 -33.6498 58.3785
CA 28.9785 6.31563 50.5163
CA -4.25655 -47.7465 65.0993
CA 19.0123 -10.9596 58.646
CA 19.1578 -13.6096 26.1922
CA 14.8505 -23.0246 64.6672
CA 14.2363 -5.84737 68.3256
CA 4.24009 3.41027 73.0243
CA 5.75887 -34.177 67.9003
CA -7.78063 -30.4699 47.4677
CA 34.3708 -14.8064 58.8815
CA 25.7025 -10.3515 45.4836
CA 26.5582 -18.3169 39.7291
CA 8.97809 26.6474 59.7257
CA 18.4665 -10.2665 18.1432
CA 20.2652 -10.0676 28.323
CA 0.158996 -28.2994 63.485
CA 31.8943 -10.5433 62.0059
CA 10.0899 -0.681544 61.3876
CA 12.0534 20.6591 81.1688
CA 13.7972 -35.3295 57.0639
CA -4.02629 -41.5944 47.1925
CA 10.9471 -45.7306 56.1913
CA 22.3418 -1.35268 63.0621
CA 11.5896 -25.1141 58.3814
CA 18.034 10.7266 71.7108
CA -1.42741 -36.4089 58.7162
CA 14.8541 0.504579 34.5396
CA 21.5309 -4.86571 44.2862
CA 11.2824 -2.4435 67.5615
CA -6.82984 -47.2212 51.6001
CA 13.5939 -29.0983 61.6231
CA -8.67465 -24.2371 45.0379
CA 22.013 10.0962 42.6206
CA 20.3181 -16.568 47.1098
CA 18.7328 -8.94146 70.0199
CA 19.2545 -23.7652 56.2954
CA 18.2296 -19.8473 53.9065
CA -3.91693 -9.90061 68.9507
CA 22.2706 -14.0558 28.3289
CA 10.4879 -3.67851 58.3873
CA 15.2396 13.3558 42.5739
CA -1.23568 -18.4177 40.4705
CA 18.9913 -13.1702 54.2301
CA 21.6711 -28.0268 67.3261
CA 9.53607 23.7063 70.5449
CA -2.54224 -35.2393 61.0398
CA -8.94951 -33.6219 46.2681
CA 14.4587 -17.0183 59.8972
CA 21.4243 -3.79229 21.8811
CA -12.1988 -5.40737 58.7045
CA 21.3365 -13.3457 37.5498
CA 17.175 -6.90143 12.5352
CA 11.8832 -4.95557 72.0669
CA 0.348421 -30.8524 62.5155
CA 12.6677 -19.4172 60.1186
CA 2.99098 -26.3047 57.9683
CA 17.4459 15.338 81.057
CA 30.6555 -18.7439 52.8723
CA 22.6424 -16.3528 36.3532
CA 17.7487 -2.09372 38.6215
CA 15.1976 31.4598 62.5491
CA 24.9199 -9.39979 61.509
CA 13.8181 17.276 73.162
CA 21.309 -7.61899 38.8284
CA -7.96668 -46.3281 65.6392
CA 27.9248 -0.434634 72.2626
CA 18.8006 -14.9178 57.1038
CA 25.014 -30.6485 65.2085
CA 16.2747 -19.6823 52.9094
CA 5.54313 -23.2768 58.1481
CA 1.35358 -19.9616 42.6982
CA 18.5017 -36.096 59.0556
CA 37.7634 -3.4683 63.4496
CA 0.772382 -18.6438 39.9805
CA 20.2594 -28.2494 57.3016
CA -4.71467 -4.68287 45.7153
CA 2.89998 -13.1095 60.1989
CA 6.64643 2.89472 73.5964
CA 0.080188 -26.467 39.8015
CA 26.941 3.09491 73.9434
CA 21.6456 -9.66184 78.2332
CA 32.8683 -21.9423 39.9919
CA 21.3967 -3.1861 42.5202
CA 21.3884 -8.76018 53.3584
CA 29.3215 -20.1757 39.207
CA 8.46569 1.46117 60.1377
CA 18.9769 -12.6401 60.9146
CA 3.76885 -10.0457 57.3995
CA 21.6565 2.58487 58.8092
CA 36.1232 -23.032 56.1741
CA 19.7532 -11.6081 49.1392
CA -13.9968 -2.18966 50.2479
CA 16.7983 -18.1343 37.2369
CA 36.4761 -12.9679 57.929
CA 12.7988 -13.8857 21.1988
CA 31.0218 -8.89688 70.6796
CA -8.61111 -43.47 58.9536
CA 12.1271 -51.9474 52.8432
CA 18.8554 -9.19434 67.8198
CA 39.0406 -20.5448 56.293
CA 9.46753 -25.1597 60.8314
CA 22.0419 -27.4125 54.3315
CA -0.470159 -40.7968 42.262
CA -7.79968 -26.56 43.5104
CA 9.90529 3.57206 82.3507
CA 33.7703 2.43415 49.0745
CA 7.56033 -26.0869 60.6008
CA 28.5226 -16.8317 54.138
CA -0.0571975 -45.197 68.4561
CA 2.78971 -37.449 56.7784
CA 11.4528 -44.2004 58.8755
CA -4.84419 -16.761 66.3068
CA 14.7672 -5.3323 35.8022
CA 20.877 -13.8826 69.1936
CA 27.1494 0.558961 52.0831
CA 30.0865 -20.0559 36.554
CA 16.1034 -24.6565 49.3743
CA 8.39453 -11.0894 63.6511
CA 16.5134 7.68713 74.713
CA -14.5782 0.452155 48.0216
CA 0.76641 -16.9684 68.5796
CA 18.6899 0.432985 65.0033
CA -12.2566 -9.28922 54.3661
CA 13.5765 -6.4456 48.1242
CA 8.52674 28.8506 61.7791
CA 0.344516 -22.1315 37.7131
CA -7.67392 -7.32514 41.0576
CA -8.20277 -20.3056 46.8987
CA 14.2639 -17.2311 50.3192
CA 22.0064 -4.2268 18.3184
CA 14.1784 -20.7562 12.3189
CA 13.4478 14.4266 79.6681
CA 10.6061 22.8273 77.8915
CA 2.62773 -26.645 44.2557
CA 10.5953 11.3243 75.975
CA 27.0687 -27.4662 65.148
CA 32.5215 -12.6988 61.9952
CA 19.3269 31.2811 66.043
CA 27.3327 -8.82436 64.177
CA 16.3167 16.7624 81.0431
CA 18.7389 -5.11691 47.1604
CA -12.0974 -0.715777 46.5383
CA -6.51512 -38.3566 52.0816
CA 17.5517 0.551643 35.3007
CA 12.1114 -22.9508 38.353
CA 18.1258 -22.6351 49.5732
CA 17.5986 14.4112 78.4018
CA 21.8538 -38.7564 62.8747
CA 18.1916 -26.1384 57.295
CA 37.1144 -2.4323 64.8957
CA -3.92479 -11.8581 71.9327
CA -11.6621 -28.3601 41.1397
CA 19.6318 -10.1069 33.6184
CA -0.529724 -27.1761 54.5257
CA 10.1405 -46.1602 52.8213
CA -4.81493 -42.8465 48.9864
CA -11.8684 -9.17083 57.8862
CA -16.1589 -12.5594 55.1531
CA 35.6712 -7.82054 59.4147
CA 24.6493 9.15813 50.678
CA 39.5486 -8.6488 63.1865
CA 20.5367 14.6346 83.3603
CA 16.493 -24.3922 40.5119
CA 21.9343 -1.21775 39.0904
CA 5.38662 -22.1691 43.1836
CA 15.833 2.30406 73.9076
CA 4.67679 -39.3559 66.3092
CA 17.8618 -25.6447 44.3545
CA -7.53318 -34.6411 51.6023
CA 27.1911 -14.0971 48.9526
CA 10.9313 -10.341 20.1219
CA 6.79315 -28.3094 54.8409
CA -2.27723 -28.8984 36.9415
CA 16.477 17.7832 72.2623
CA 22.9665 -7.97059 43.8882
CA -16.1808 -5.95026 49.3544
CA 18.6234 -14.0189 17.0066
CA -4.75194 -6.06709 61.1513
CA -4.06293 -31.8632 50.2277
CA 34.6851 -11.2987 62.8069
CA 6.6028 -40.7773 58.282
CA -3.34539 -7.75591 65.6031
CA 28.0358 -36.3488 60.8295
CA -8.04671 -7.44206 63.5754
CA 47.2714 -24.227 58.4951
CA 36.8853 -5.07155 62.1545
CA 13.7887 10.3229 74.3119
CA 27.5386 -0.577086 50.3889
CA 11.2913 0.78189 59.2616
CA 10.0357 30.3181 64.8316
CA 42.9442 -9.39582 53.5627
CA 17.6387 -15.3658 23.6164
CA 6.14283 21.1942 68.1447
CA 14.8423 -25.5018 47.6457
CA -10.3528 -35.257 53.7421
CA 16.1756 -9.55206 58.344
CA 8.28835 -8.70503 20.843
CA 10.7661 28.5799 67.5769
CA 11.7471 -0.589471 74.3565
CA 18.9968 -2.19997 76.3576
CA 21.9318 -19.413 34.2121
CA -11.1229 -50.0426 57.6908
CA 4.17908 -9.52996 75.4796
CA 6.77533 -16.1505 65.7238
CA 10.9595 -14.8097 18.7274
CA 17.936 -27.546 64.2354
CA 4.06452 -30.9688 39.3885
CA 18.4081 28.726 56.8284
CA 12.0431 16.5776 70.6661
CA 18.3069 -1.12983 45.8389
CA 30.6306 -3.69175 69.1987
CA 24.1167 10.8715 45.2609
CA 19.6592 27.9118 64.7129
CA 18.7163 -7.72486 25.5613
CA 34.9194 -18.5699 58.0042
CA 0.118213 -30.1352 58.2606
CA 15.8328 -21.2026 50.9044
CA 17.1914 -9.9465 16.8067
CA 3.39838 -13.1184 72.6916
CA 16.6029 -16.9432 35.8549
CA 17.4521 -1.69559 71.7019
CA 19.5113 -14.9761 24.0436
CA -11.8831 -6.15054 50.2709
CA 18.6029 -9.0126 36.9654
CA -5.89162 -43.1028 50.8476
CA 18.0619 -13.9222 52.0632
CA 15.7811 -30.0155 45.464
CA 7.21419 -35.9991 57.7386
CA -0.493028 -45.6187 57.3067
CA 5.54819 -27.8293 56.7823
CA 8.08923 25.7322 83.073
CA 18.7696 -4.14876 36.6656
CA 12.986 18.9108 71.1581
CA 21.5889 -14.1967 54.8448
CA 14.9191 12.7691 76.6258
CA 11.8528 17.4356 75.8824
CA 46.2195 -5.58257 67.5179
CA 19.3114 -22.849 54.5432
CA 12.6229 -16.9185 18.4909
CA 9.32846 -27.2612 41.2189
CA 5.35818 -29.6948 58.3065
CA 8.74791 -40.3382 57.2051
CA 30.6609 3.84356 50.3377
CA -2.2694 -6.86067 66.9483
CA -14.3294 -46.6025 61.4352
CA 18.053 34.3192 63.4645
CA 32.6542 -22.2109 54.5071
CA 9.25715 26.2933 62.7349
CA -13.081 -44.0076 65.1838
CA 14.5046 -1.52718 67.8859
CA 7.63747 -48.6494 66.085
CA -0.222824 -32.9554 62.3309
CA 1.0084 -39.4105 50.1556
CA -0.856854 -18.3451 38.4593
CA 9.29356 -21.3167 49.6648
CA -2.60882 -9.54741 63.905
CA 3.32574 -32.9877 66.5315
CA 2.23385 -28.7735 58.7972
CA 14.9272 -11.9638 46.178
CA 2.98129 -23.7314 38.4661
CA 5.87266 -42.8928 44.4519
CA 22.7258 -0.246371 71.4965
CA 6.80246 -7.91649 57.4855
CA 6.90457 -0.197781 70.5642
CA -16.978 -7.22512 52.3607
CA 22.2911 -20.3855 47.5602
CA 15.8307 -14.7065 33.2624
CA 24.2086 -13.2446 28.6007
CA 25.0359 -11.059 41.3423
CA 3.00803 -3.18872 33.8375
CA 23.9623 -27.2233 45.5745
CA 8.90449 -47.1527 66.3077
CA 17.2858 -7.81865 17.3927
CA 22.5931 -7.36194 25.5021
CA 32.2472 -15.6685 63.3519
CA -12.8798 -6.3141 43.1821
CA 18.5156 -5.78575 71.2106
CA 19.8743 -36.8617 56.3225
CA 16.0161 -1.58255 65.7692
CA 42.1011 -12.1889 54.4311
CA 12.1026 -10.7488 47.0366
CA 31.1914 -19.468 44.6381
