489

CA 11.3908 -9.22745 51.0977
CA -6.69122 19.704 40.9979
CA 4.33932 -4.45404 71.8518
CA 16.5462 -18.7501 52.906
CA 16.8064 0.218334 79.6504
CA -4.85003 -35.1794 52.9507
CA 16.6202 -23.8327 53.8915
CA -8.27985 -7.65776 51.6414
CA -31.3721 11.5237 50.0633
CA 4.83418 -11.1861 64.569
CA -4.36615 -24.4724 38.1801
CA -29.4285 9.18015 50.5956
CA -8.17635 -6.1892 61.3729
CA 31.0092 -13.1521 63.7198
CA -6.75015 -8.07434 46.8228
CA -13.7494 -24.1183 45.1854
CA 2.01381 26.101 62.9379
CA 2.22915 9.77007 69.8677
CA 5.98926 -1.00716 60.5094
CA 6.58764 2.03591 74.2099
CA 3.14502 -7.65712 54.3443
CA -18.0986 -6.40676 50.41
CA -4.45825 -4.71742 42.3866
CA 4.98179 4.36802 68.5795
CA -6.89977 9.8715 25.9051
CA 23.2275 3.94158 46.3567
CA 5.21676 29.2097 68.0562
CA 7.69663 -4.48356 60.2889
CA 33.979 -6.65889 59.014
CA 15.4948 -16.6457 46.3877
CA 7.02128 1.89707 67.5065
CA 35.9953 12.9851 61.1824
CA 31.8115 5.71977 49.8538
CA -29.1927 14.563 52.9272
CA -4.96374 -31.3867 50.8641
CA 13.9149 -16.3098 47.6333
CA 3.46469 -0.238871 62.4119
CA -5.47651 -22.5615 42.4427
CA 9.7067 -11.5654 46.2125
CA 9.26675 -5.47648 80.4042
CA 3.4312 26.198 71.375
CA -28.5253 5.8094 27.0116
CA -15.9921 -35.3397 36.4387
CA 13.7859 1.50178 64.0387
CA -4.85615 -17.2928 50.5645
CA 16.5149 1.29213 70.3704
CA 25.0079 2.13065 50.5462
CA -2.96603 13.8115 11.415
CA -2.79479 -23.157 25.2846
CA 22.0966 -36.423 59.79
CA -12.8809 -10.0101 35.8492
CA 25.6687 -27.1564 59.8736
CA -17.3733 -24.5293 18.8904
CA -18.0779 -10.6346 24.6526
CA -13.8509 -7.53557 80.9003
CA -2.10591 28.4616 52.6535
CA -10.2537 -31.7596 48.3941
CA 17.6 -21.7919 54.7053
CA 26.6887 7.11096 60.7629
CA 12.6064 6.91846 73.7789
CA 14.3959 25.8375 41.2035
CA -4.04424 25.4613 63.0955
CA 23.2887 8.30292 59.9516
CA 20.6147 -29.6393 60.3299
CA 12.6798 -5.70608 65.5443
CA -19.6606 -27.026 26.6733
CA 11.173 5.99099 79.9475
CA 5.78256 15.8676 64.5264
CA -17.9262 -27.5038 51.5186
CA 3.15581 -6.91377 60.3488
CA -32.1823 -0.539536 45.4853
CA 2.43358 22.8118 73.5788
CA 13.5267 13.6864 77.6532
CA 17.1959 -15.4619 45.7528
CA 2.18708 -4.60698 51.437
CA 19.8239 0.585493 46.8186
CA -17.3845 -26.8505 49.3687
CA -29.0762 0.224302 45.7181
CA -7.22284 -9.4722 72.2722
CA -13.0828 1.89727 75.5361
CA 15.1482 -25.9499 62.3801
CA -8.78907 20.7898 32.3076
CA 18.4174 -30.0948 70.9928
CA 5.89414 -6.79638 75.1116
CA 25.6327 -0.233114 63.2811
CA 4.75891 -32.6278 37.325
CA 6.54449 -28.5519 30.7328
CA 14.3436 1.53571 79.5328
CA -32.9095 -4.2282 34.8874
CA -0.347485 5.00472 23.0923
CA -7.35085 -15.8379 20.4881
CA 18.1943 4.55891 44.7398
CA 10.5774 7.91075 81.5548
CA -14.3236 -9.66284 76.6582
CA 24.1934 -8.15491 64.394
CA 1.37521 20.8608 34.6205
CA -13.8362 -12.8449 23.7193
CA 12.4662 -14.7836 23.9935
CA -2.12041 25.3033 63.1148
CA 18.2503 -24.7542 61.971
CA 3.59868 24.33 63.0791
CA 18.1987 9.36157 46.4014
CA 23.7521 5.71634 62.7227
CA -6.67462 -14.6565 56.1924
CA 7.87557 -13.3075 53.6945
CA 34.2118 -15.4783 56.4822
CA 13.6161 -19.2463 69.2134
CA 5.31063 12.0564 32.0014
CA -19.5661 -10.2229 37.5617
CA -26.9522 11.6859 26.2231
CA 9.49217 -4.46635 63.7094
CA 13.537 2.71826 59.0681
CA -6.88949 -21.8991 50.0704
CA 17.5417 0.247871 76.1326
CA -18.5877 -0.387844 43.281
CA 26.214 -12.3832 60.3774
CA 18.8805 -33.1174 62.3322
CA 22.5809 -18.1489 55.9073
CA 26.5569 6.34397 56.3481
CA -19.2835 -14.5158 82.7645
CA 18.3805 -2.9777 46.2092
CA -17.743 -0.561436 47.7555
CA 1.33869 27.3345 53.2208
CA -34.9363 -4.22757 42.2519
CA 6.59268 -2.08017 66.3632
CA -4.45682 0.607127 60.5672
CA -25.6638 9.15075 48.1876
CA 29.9706 8.21771 33.3844
CA 13.0835 -2.02663 46.2205
CA 20.133 -17.911 60.9302
CA 6.09128 -8.74758 76.8939
CA -28.2384 12.7678 73.6726
CA -13.0748 0.165829 45.8102
CA 20.7047 -0.636889 73.9065
CA -6.00183 -15.3449 45.2301
CA -0.0313173 1.81357 57.0937
CA 18.2536 -16.0013 30.9604
CA 23.4626 6.60237 58.921
CA -1.14191 -16.0656 44.5305
CA -34.0296 13.8931 62.4588
CA 3.45872 25.4965 60.146
CA -22.4624 -26.7202 25.7378
CA 4.12057 25.4162 40.3871
CA 9.23251 -3.65204 66.6996
CA -7.34643 -24.1924 66.6041
CA 15.1232 -14.4767 46.6592
CA 14.6197 -30.5342 61.4084
CA 1.5238 28.4937 48.6682
CA 28.4495 0.745984 57.6192
CA 30.775 5.99792 42.5862
CA -1.48013 26.5108 66.4233
CA 6.64933 -26.9571 40.8517
CA -7.03838 -0.789995 63.7166
CA -5.12851 -2.24572 52.5463
CA 0.933441 20.2806 68.7451
CA -37.7024 -3.78953 41.57
CA 0.974281 0.708215 53.5635
CA -20.8047 4.01267 55.0392
CA 9.42505 10.5182 77.9636
CA -5.82385 -21.8245 37.624
CA 0.395456 -2.96086 71.2521
CA 3.33717 -6.13686 77.7225
CA 24.4908 12.7665 58.4777
CA 17.3367 -15.1811 29.5654
CA 2.59344 24.837 74.1809
CA -7.5957 23.3555 32.6366
CA -4.04842 24.4778 42.5905
CA -4.71238 -0.923792 43.8248
CA 19.0254 -11.663 31.2717
CA 7.2659 8.25243 78.7983
CA -29.5986 10.5863 54.5567
CA -7.08701 -3.60603 47.1193
CA -14.3943 -9.48918 34.4552
CA -13.1445 -34.1817 37.4927
CA -6.10873 -3.81543 43.1896
CA -32.4041 14.0964 56.3216
CA 25.7634 -3.40265 63.5163
CA 19.3489 -12.7355 21.3799
CA 0.655413 1.7055 22.8794
CA -11.7654 -22.3916 41.0123
CA 1.70473 23.6405 64.5793
CA -30.407 9.18651 47.4463
CA -5.22449 -15.466 20.2425
CA 1.35256 18.6857 62.5933
CA -2.4999 -4.221 41.4498
CA -15.8309 3.64 69.7474
CA 8.65534 -5.59488 52.575
CA 2.72398 -8.76845 65.0901
CA -8.09018 -26.3998 46.7867
CA -16.664 -23.9288 21.8616
CA 13.9452 -5.22203 69.5816
CA 7.53249 3.99933 77.4837
CA 2.20801 0.565968 60.3792
CA 32.6054 -1.36351 38.2279
CA 22.273 -20.3306 56.4348
CA 27.8675 8.55961 31.5738
CA -0.520275 -14.3643 47.4998
CA 8.93112 -29.0767 32.7202
CA 2.69264 -3.24904 75.966
CA 12.9128 -8.04981 70.2472
CA -16.2615 -30.8044 45.5807
CA 5.26222 19.0982 34.3428
CA 3.88934 32.2368 67.7773
CA -17.073 -10.5496 82.2772
CA -36.6564 -10.1372 58.3123
CA -4.05088 26.1262 60.0189
CA -1.99966 25.1996 52.5247
CA 6.04778 9.58923 69.3624
CA 17.7901 -13.0051 56.4693
CA -35.6744 -10.3658 60.4201
CA 23.9471 0.308546 51.5736
CA -31.3547 -5.23897 38.8283
CA 18.7779 -27.2708 58.1318
CA -35.1941 0.366591 45.6143
CA -2.12508 1.23034 47.7707
CA 8.30826 15.6031 82.4056
CA -37.9445 -4.07062 55.642
CA 0.381864 2.73698 55.0301
CA 1.84607 -27.7724 31.8315
CA 15.109 -15.1234 19.3136
CA -16.5095 -9.20742 78.8923
CA 23.2127 -22.1928 69.9614
CA 21.4859 -18.9917 59.4035
CA 15.6062 -14.9603 23.6692
CA 2.79096 27.6751 64.6537
CA -38.3242 -14.5669 63.2542
CA -20.0335 -10.935 43.0213
CA 6.65441 -5.5241 71.0925
CA -1.40247 30.4382 69.2548
CA 3.45473 27.3479 69.8349
CA -32.9535 -8.97418 40.673
CA 24.7216 3.52993 51.9481
CA -22.1711 -26.5781 28.4848
CA -10.2511 -5.96204 44.1137
CA 20.8619 -25.6357 41.4088
CA 5.19839 4.26635 77.0987
CA 23.4075 10.543 56.8184
CA 20.2266 9.89787 49.4698
CA -22.074 -8.43255 34.9419
CA -25.0578 -4.06011 54.4532
CA 1.38034 -0.65393 19.393
CA 4.00266 -1.66359 56.175
CA 2.80596 -8.62238 67.6514
CA 23.3888 -24.2935 69.5025
CA -29.7296 -9.54118 54.8982
CA -15.6713 -7.35189 77.3798
CA 6.86476 -5.80392 79.4271
CA 5.78287 -7.2826 51.2664
CA 40.8928 -11.3216 58.7131
CA 18.8926 -13.7167 53.9372
CA -8.78178 -8.31101 72.6944
CA -24.8714 8.67191 27.2883
CA -27.8794 -8.45697 57.9243
CA 2.23307 29.1214 41.4379
CA 21.5094 -22.4596 52.8687
CA 5.16444 -3.20583 58.6445
CA -3.32465 -0.530729 56.9092
CA -25.3433 -6.79245 54.8428
CA -33.4832 -6.89107 43.7137
CA -5.68777 -19.5766 39.311
CA 11.9433 -14.0433 48.3541
CA 6.54674 28.9849 43.1524
CA 20.5388 -33.9341 63.6843
CA 0.870236 4.26877 66.51
CA 16.2748 -24.8865 60.9239
CA -2.56628 -1.77296 46.0087
CA -21.4203 1.44446 51.4252
CA -34.1595 -2.9639 43.8916
CA 10.2146 14.5586 85.6014
CA -4.44588 -2.16571 42.3907
CA 4.5483 -7.71019 79.0973
CA 16.2355 -14.8722 50.6784
CA 10.0929 13.0957 72.7631
CA 7.64785 -2.70734 62.169
CA 24.405 -12.8856 66.9753
CA 2.21894 26.851 40.4187
CA -13.0209 -8.04928 53.9964
CA 23.738 -16.6736 62.8842
CA -12.8129 -5.07814 54.4736
CA 0.979678 20.9003 65.7459
CA -8.48893 -0.937677 61.0443
CA 3.58748 1.7697 18.1013
CA -14.1997 -14.7016 36.7413
CA 13.4754 -21.717 49.9683
CA 9.80103 4.04015 61.2767
CA 11.2975 7.57334 58.8416
CA 8.36818 13.1809 86.0104
CA 32.9917 12.2811 58.7656
CA -5.26345 -8.28768 60.8253
CA 4.25791 22.3889 70.6069
CA -3.74353 28.0846 29.2641
CA 4.52465 20.6293 72.1318
CA -13.9095 -7.94 43.6801
CA 18.012 0.445068 46.0953
CA -32.9846 1.53285 45.3801
CA -30.5679 5.98107 27.9114
CA 15.6482 2.78501 78.2582
CA -3.86346 22.6718 39.4883
CA 4.45786 -0.27179 18.3507
CA -16.0342 -7.67378 55.9055
CA 1.73448 -23.6017 67.9883
CA 10.0865 7.96855 78.4405
CA 3.80777 -4.1387 78.9832
CA 29.1617 -24.0211 49.6628
CA 9.15443 4.47337 75.4435
CA -11.5672 34.7568 37.9475
CA -13.2847 1.9592 72.1441
CA -8.10315 -13.1895 52.9408
CA -11.7988 -16.7026 52.3769
CA 21.3121 27.4676 64.8774
CA -17.4429 0.97735 55.5378
CA 30.6801 -1.84656 58.2171
CA -15.7123 -2.09225 42.3449
CA 14.1036 -15.6677 64.0762
CA 10.7253 4.50553 64.5336
CA 19.7572 -25.6706 60.4012
CA 22.3743 -15.6246 59.3937
CA -12.8045 -1.92213 69.8121
CA -7.20821 -25.871 40.4677
CA 30.3822 9.28035 42.8067
CA -17.4557 6.94838 80.6293
CA -3.98841 20.991 42.1325
CA 6.72155 -12.264 55.9932
CA 18.6018 -19.5311 54.1524
CA -17.1517 -6.60337 52.6694
CA 21.1821 4.10793 45.8487
CA 3.28024 6.73045 23.7792
CA 8.72782 -8.93376 64.5447
CA 4.46526 19.7704 75.0593
CA -5.47608 -26.0659 37.2777
CA 22.0021 -25.6219 58.7428
CA -7.75718 -20.2311 40.4235
CA 4.2156 -22.9192 66.5528
CA 9.6847 22.8498 24.2784
CA 10.5285 11.9922 80.8041
CA 5.46123 25.3055 62.1396
CA 1.31976 28.083 70.1577
CA -27.8035 -8.00919 55.4396
CA 26.0477 2.98972 58.5388
CA 20.0434 -9.81055 44.1116
CA 24.5019 -26.1275 54.1138
CA -2.71785 29.2659 28.2251
CA 12.9742 -1.56317 71.8751
CA 20.3111 -4.95983 70.3402
CA 17.812 -16.0523 43.3774
CA -29.0328 11.6314 50.721
CA -7.65828 -34.4671 57.839
CA 17.0351 -21.6846 52.1918
CA -21.0184 1.56455 56.099
CA 24.6956 6.11942 60.3183
CA -30.724 -3.65545 47.2486
CA -8.41809 -6.96265 70.7539
CA 19.7982 -2.41992 70.0589
CA 14.9537 -3.64765 70.0222
CA 7.89576 -5.58475 88.1816
CA 7.97637 -6.72836 68.8105
CA 34.8828 -17.7361 51.408
CA -39.1702 -2.29943 42.1569
CA 17.0269 -17.5948 44.546
CA 16.0138 -1.88499 47.2248
CA -21.4271 -25.8435 26.9595
CA 4.7428 -8.96778 66.9587
CA 8.32194 -3.44735 70.1777
CA 20.5837 -23.941 65.5685
CA -10.5273 -20.9125 54.4609
CA 7.10337 -24.4087 63.0917
CA 5.84815 7.37204 73.2332
CA 2.11636 18.2786 73.1867
CA 3.28888 -11.4938 65.5476
CA 17.3597 -13.8143 44.821
CA 4.72873 22.3278 63.869
CA 3.88358 -18.0794 49.9736
CA -8.7799 25.9244 25.0556
CA 2.8769 -2.49007 60.8838
CA -13.0187 -12.732 34.348
CA 37.5117 -8.02789 58.6713
CA 13.889 -13.895 53.1041
CA -1.316 -6.17498 64.3109
CA 8.58574 -6.07436 77.9692
CA 19.2947 1.74878 48.1613
CA 23.6087 0.804621 47.9362
CA -13.2971 -6.28711 41.7321
CA -20.9028 0.163205 43.3396
CA 16.1262 -15.1714 17.1266
CA -6.08588 20.8104 37.6691
CA -14.6054 -31.2048 38.8178
CA -10.5667 -14.4075 48.8256
CA -11.0263 -25.3308 43.2247
CA 33.0423 -18.2923 50.5409
CA -6.35891 -31.4028 49.2619
CA 17.9552 -17.2743 58.0382
CA 6.38451 -4.1861 49.912
CA 6.94409 -1.05268 75.7207
CA 7.52886 -6.7444 73.072
CA 15.318 -18.0529 63.2619
CA -0.130242 5.48451 25.031
CA -5.76853 -12.8303 60.5441
CA -28.1619 18.9366 67.5351
CA 14.1291 -35.7699 64.3509
CA 0.506764 -15.7187 46.368
CA 25.9945 -19.1999 61.8722
CA 24.9205 -17.9135 59.132
CA 16.6885 -17.0358 48.0318
CA 31.3619 -15.5427 60.1599
CA 18.2397 1.9287 59.1735
CA 15.7359 -17.9527 50.9992
CA 4.82747 -28.7378 37.3401
CA 5.03001 -5.40361 77.6253
CA 3.1927 13.5016 68.6538
CA -7.79559 26.0015 32.1592
CA 12.4823 -5.86844 49.6316
CA 14.867 -13.0227 24.5042
CA 8.15132 14.0598 84.3276
CA 10.4275 2.10955 59.408
CA -7.42865 -31.5826 53.0967
CA 30.1932 -18.3396 50.7221
CA 5.42996 -0.258405 62.7965
CA -2.32361 -25.6955 25.9621
CA 10.447 -27.3399 54.4226
CA -16.3145 -9.51649 48.7486
CA 13.3616 -16.0922 27.3061
CA 15.6686 -15.0091 27.2286
CA 24.3073 0.362225 54.5658
CA -4.28241 -34.1344 55.736
CA 11.104 -7.38431 68.1417
CA 26.5053 -9.9999 65.8838
CA 1.92166 4.67133 73.2564
CA -35.5009 0.306658 43.2066
CA 4.66531 -8.81189 58.5884
CA 18.1176 -27.1048 60.7317
CA 2.02306 1.52444 71.3074
CA 4.47205 13.67 32.9939
CA 3.9185 2.85868 59.8365
CA -4.73399 -3.6343 63.7094
CA -4.56996 -7.40093 62.4971
CA 11.869 8.11486 80.011
CA -7.83965 24.9283 28.4522
CA 2.61882 21.7922 59.6003
CA -11.3069 -27.1204 50.3598
CA 16.1669 -20.4876 50.4998
CA -38.2127 -1.26517 51.7317
CA 13.3298 -28.0127 59.8901
CA 1.36651 22.1985 74.922
CA 0.617448 28.1026 62.7532
CA -36.1547 2.0026 41.5212
CA 21.3404 -17.1604 58.4416
CA 18.2502 -13.5925 66.8147
CA -0.250593 24.1793 64.509
CA 22.9161 -26.1911 73.5889
CA 29.0895 -12.1262 60.2479
CA 18.9928 2.03004 44.5062
CA -8.32537 -22.386 39.283
CA 25.5919 0.424762 57.8648
CA -8.80652 -32.1564 51.4703
CA 18.7999 6.76986 47.5147
CA -17.797 -2.4501 48.3746
CA 16.2553 -24.5051 48.7931
CA -6.60808 -4.25408 59.4018
CA 2.21372 -15.513 47.7115
CA 10.775 6.48675 77.4038
CA 4.14097 28.9567 41.1427
CA -6.8101 -28.3409 76.5424
CA 12.4994 0.221465 62.6472
CA 6.00115 13.6287 79.7471
CA 4.55426 -32.1594 33.0986
CA 32.7837 -3.23079 58.3311
CA 30.4688 10.276 59.5848
CA -26.3236 12.6294 57.1131
CA -4.59448 16.9207 74.3178
CA 2.1008 2.03079 69.2664
CA 17.1398 -13.6499 61.7376
CA 3.08193 28.2954 77.8716
CA -0.202891 23.4049 72.7267
CA 3.59215 -1.68623 59.2751
CA -3.97584 -11.5997 55.2288
CA -5.23081 14.8796 14.3199
CA 31.4237 -18.7344 55.1597
CA -26.6106 -4.73422 52.9149
CA 10.7807 -29.3627 53.9145
CA -0.707425 -28.6239 37.1889
CA -0.902628 30.7171 73.2741
CA -28.8764 3.39168 30.0522
CA 0.938279 1.49601 61.6463
CA -33.9628 -3.11995 39.4463
CA -13.1896 -12.9693 77.3642
CA 19.4372 -18.052 55.3943
CA -5.68268 -3.79447 51.6037
CA -21.5821 2.7142 57.8286
CA 20.862 11.9457 56.9774
