489

CA 26.8135 8.95969 39.2025
CA 43.9932 -1.82824 69.6132
CA 19.383 -7.43707 51.5182
CA 28.698 -12.6203 60.2442
CA -4.39001 -30.6021 59.3896
CA 12.6593 -7.37309 15.7626
CA 16.9339 -29.6289 60.4612
CA 25.8378 12.0496 43.1962
CA 17.5784 -12.1391 50.5396
CA 21.279 -0.647198 73.6711
CA 6.46356 -3.39179 62.4043
CA 26.6157 0.971884 52.7715
CA 35.8895 -16.9853 59.5741
CA 5.37751 -3.7437 49.5366
CA 15.4214 -4.99172 47.4395
CA 49.493 -7.87458 53.0317
CA 17.1101 15.0342 75.4978
CA 28.4425 -30.8311 53.7205
CA 10.9448 -43.9933 44.5588
CA 0.0929146 -25.13 54.2493
CA 21.5137 -37.4759 61.6616
CA 19.9553 -17.0295 59.0294
CA 15.9309 8.83036 70.08
CA 33.6832 0.0224041 55.2903
CA 28.5146 -8.92673 37.8019
CA 31.459 -22.868 47.6146
CA 3.86971 -17.6694 58.8167
CA 29.1573 2.09955 55.8809
CA 47.5142 -10.219 58.0097
CA 5.11497 -19.2144 75.9931
CA 26.9532 -9.18272 39.5711
CA 13.8924 -8.61178 14.9563
CA 18.6931 -4.39179 76.7705
CA 17.0756 -24.9856 51.6702
CA 14.4257 -18.2055 14.9789
CA 2.29545 -45.5485 78.1192
CA 23.2069 -6.65046 74.0482
CA 3.96773 -29.1262 52.3837
CA 32.0879 -12.3691 39.8869
CA 0.172677 -47.2994 59.922
CA 19.8438 -37.3627 60.5347
CA 38.3656 -1.56707 50.3693
CA 7.21604 -44.1071 67.936
CA 7.44932 -13.6096 63.1856
CA 13.8396 -11.7328 35.4568
CA 21.8738 -18.6743 63.6005
CA -12.7346 -9.35195 45.9039
CA 43.7251 -9.48649 59.446
CA 14.5716 -40.6455 52.183
CA 0.211671 -40.2387 51.3682
CA 7.13721 -25.5035 37.9762
CA 15.1319 1.55862 83.5666
CA 18.3704 -0.774475 15.5375
CA 16.0448 -5.96157 10.3285
CA 11.3602 -16.4677 17.7469
CA 14.9762 -0.0654242 77.8248
CA 16.429 29.6793 70.1723
CA 45.5144 -20.4727 60.083
CA 21.9184 -9.43792 55.2949
CA 4.96283 -32.5224 52.8091
CA 16.9842 8.58885 73.0019
CA 14.7226 -15.0156 33.6164
CA 15.3022 -12.2291 69.7309
CA 21.8461 4.32142 75.0951
CA 9.58593 -20.922 61.5939
CA -3.35259 -11.0032 51.9893
CA 1.50998 -14.248 65.669
CA 17.8935 -7.56876 56.6258
CA 18.7691 -20.7352 45.4258
CA 15.0033 -7.71707 72.1289
CA -5.0213 -7.54825 60.4343
CA 15.656 -3.74989 19.0821
CA 19.435 -24.6608 59.2987
CA 50.829 -13.5699 51.9673
CA 5.11126 -50.0392 68.5428
CA 13.9369 -15.3043 64.9779
CA 17.9174 27.1795 66.1497
CA 14.8813 -38.8414 50.3451
CA 17.9825 -22.7317 45.5073
CA 27.7303 -11.016 60.4304
CA -6.53474 -4.58162 44.8684
CA 18.0353 -18.3548 54.8515
CA 0.773645 -13.4986 57.4159
CA 10.2834 4.99211 66.8875
CA 24.1539 -2.89468 50.0788
CA 23.6829 13.6952 44.4926
CA 53.5261 -7.10055 59.0043
CA 4.32977 -6.73547 52.2539
CA 25.6069 -5.84337 60.9867
CA 17.472 -9.0842 16.9311
CA 38.6045 -15.292 65.3258
CA -3.24491 -14.1667 43.3317
CA 29.0601 -25.504 49.4087
CA -2.25691 -48.9262 70.2313
CA 10.5772 -28.7775 52.4673
CA 10.7983 -9.82469 62.1784
CA 41.1835 -8.7282 59.8233
CA 18.4906 -24.9504 46.325
CA 11.9125 2.64774 41.1577
CA 13.9617 8.79345 74.727
CA 46.464 -7.11881 62.468
CA 41.9646 -8.14094 64.8094
CA 26.7234 -30.9289 57.4057
CA -12.5107 -5.62973 54.7524
CA 24.5772 -9.21484 40.3264
CA 19.003 -13.3427 54.6413
CA 2.29358 -12.754 67.9825
CA 19.1138 -12.3829 57.1977
CA 15.6171 -15.1355 63.1863
CA 2.58851 -37.2657 47.1639
CA -0.107854 -49.2031 68.3782
CA 24.8751 -12.6998 15.117
CA -5.58547 -28.6578 59.6481
CA 14.3765 12.0852 44.5983
CA 4.47407 -24.0704 36.1255
CA 7.12266 -18.0889 56.8907
CA 22.9371 23.4284 69.5875
CA 43.1813 -15.2941 54.9771
CA 20.8755 14.8889 50.2006
CA 21.3209 -9.76176 23.108
CA 27.2263 -33.6821 54.5361
CA 12.4631 -17.3706 30.6287
CA 18.2739 -38.3485 61.2715
CA 21.602 6.75464 76.0489
CA 10.9216 -14.5488 61.4392
CA 20.079 0.907832 72.9824
CA 15.2203 -20.0616 43.4329
CA 22.1276 28.7157 65.5842
CA 28.0156 -23.8444 50.6174
CA 21.8219 -7.25114 61.8475
CA 26.9563 -26.1048 49.9742
CA 11.3854 -18.6673 26.9766
CA -4.35117 -5.3904 59.4401
CA 9.58002 3.43391 66.3187
CA 21.7552 -2.23267 51.6967
CA 23.3888 1.73839 54.7811
CA 38.104 -5.67797 67.3334
CA 23.0555 4.07982 53.5867
CA 22.4855 -9.30362 60.5927
CA 17.7521 -3.36647 77.9392
CA 11.4725 -8.91811 15.7442
CA 6.2866 -49.7699 63.0014
CA 20.8212 25.5737 67.2549
CA 14.0411 10.9599 41.6038
CA 48.442 -9.26701 61.4132
CA -6.66802 -9.42086 45.9829
CA 0.573599 -9.02375 56.489
CA 1.78317 -24.7413 55.5868
CA 22.9496 10.6075 78.8285
CA 11.4539 -41.7472 56.3616
CA -0.753517 -9.16223 51.7688
CA 27.4126 -15.6379 43.7523
CA 3.79415 -5.79975 56.3232
CA 3.31668 -32.3917 51.8829
CA 19.9527 0.473246 49.7102
CA 19.5562 -11.4251 55.5556
CA 13.3618 -10.9948 42.1994
CA 23.7398 -9.44512 44.1193
CA 50.2052 -11.5684 57.8021
CA 20.5075 -10.2403 40.4873
CA 53.2943 -5.41569 57.2221
CA 21.2949 -7.50753 52.557
CA 8.8008 -4.92069 15.2777
CA 18.8323 6.16005 80.0335
CA 21.1067 -10.813 21.0659
CA 4.07657 -30.8436 49.9089
CA -3.77158 -30.2372 61.4961
CA 12.6571 -20.0214 39.611
CA 18.9789 -9.58328 52.1857
CA 20.1297 -39.7057 53.075
CA -2.89323 -56.087 70.8462
CA 5.12843 -2.96701 45.8802
CA 29.3062 -27.8729 46.3593
CA 12.7748 -22.9212 20.5501
CA 25.1412 2.69317 72.4067
CA 9.55027 -7.4703 63.2786
CA 14.834 -9.47103 49.3549
CA 18.6293 -41.228 53.3341
CA 15.397 -18.4898 55.5583
CA 14.0901 -20.9651 47.1862
CA 20.6159 2.20561 15.2868
CA 43.8174 -4.58078 67.3268
CA 12.1036 -13.7734 59.5404
CA 12.5268 4.7613 63.4745
CA 22.2859 7.45219 44.2784
CA 17.0031 -0.00651396 70.9027
CA 21.5927 -10.5873 53.8681
CA -2.34881 -46.5757 63.7901
CA 26.159 -6.9194 47.9111
CA 40.9662 -18.9246 56.5704
CA 16.0588 -38.9665 53.2682
CA 42.5412 -7.48419 60.8761
CA 20.4081 -17.0381 55.3618
CA -4.82058 0.400311 30.2703
CA 1.60628 -38.2129 45.1007
CA 18.5862 -12.2479 39.7804
CA 17.815 -3.31736 68.8479
CA 1.23879 -54.3095 68.7751
CA 17.5626 -33.8084 53.5494
CA -3.83172 -1.70383 40.5966
CA 23.9774 -13.5941 59.7171
CA -9.91226 -31.3414 60.3468
CA 12.8259 -40.3814 53.0516
CA -8.23943 -10.7493 40.399
CA -11.4075 -2.49124 45.7051
CA 4.16709 -26.5959 52.3603
CA -4.17727 -6.51461 67.3108
CA 26.2558 -24.8585 54.8937
CA 6.69611 1.36906 62.4402
CA 21.0081 -10.5058 49.87
CA 13.2308 -16.4482 32.467
CA -9.22081 -6.99213 58.5261
CA 22.6425 -27.5864 56.6268
CA 12.9462 -20.7398 60.422
CA 25.6879 -24.7406 57.4591
CA 0.922082 -16.4369 69.3772
CA 5.02508 -29.0561 50.5618
CA 8.35577 -42.2855 39.393
CA -9.36325 -32.3017 57.4517
CA 43.1946 -1.8171 60.4157
CA 8.18807 -6.25664 62.1546
CA 34.3883 -15.6168 63.2974
CA -4.04299 -3.96553 40.8071
CA 1.93212 -26.6557 47.0562
CA 4.38393 -19.0091 68.0322
CA -9.12637 -6.91174 48.0622
CA 29.4676 -5.93825 44.64
CA 23.3121 5.00848 68.5371
CA 24.431 15.5898 44.1637
CA -3.56045 -4.47833 43.3606
CA 14.8439 0.821953 75.1475
CA 24.5991 -33.5354 52.3224
CA 42.9664 -18.932 55.9949
CA 14.8945 2.58599 73.8427
CA 11.6337 -11.8918 15.0392
CA 22.4164 11.9836 48.0418
CA 47.0271 -20.5229 58.1493
CA 13.3593 1.79858 75.497
CA 26.2164 8.58773 46.4047
CA 20.8133 -1.41949 48.362
CA 16.1484 -27.9055 46.5361
CA 3.71016 -10.4298 63.2658
CA -14.6203 -30.8205 55.5227
CA 6.3129 -7.10216 61.8402
CA 0.292643 -28.2375 52.2443
CA -7.3923 -12.8441 38.1869
CA -15.1613 -32.972 53.0127
CA 12.9367 5.09563 39.0456
CA -2.5432 -28.3992 46.207
CA -0.283213 -48.4398 70.2801
CA 12.258 -16.0046 59.7189
CA 42.7698 2.38281 61.3283
CA 22.007 0.666293 50.9715
CA 48.9164 -12.0267 51.2554
CA 38.9305 -6.05349 65.4405
CA 2.44559 -32.3897 55.8301
CA -3.82883 -38.3473 61.5096
CA 7.42911 -49.9663 65.245
CA -4.25929 -40.4993 62.4017
CA -4.92929 -46.4712 61.2174
CA 4.47834 -23.0455 49.8469
CA 22.7646 -28.4981 53.4101
CA 15.1477 -23.6198 52.2702
CA 27.3733 -9.238 36.0617
CA 26.9836 -10.4617 49.0045
CA 7.88703 -9.8494 61.5613
CA -1.98675 -8.19913 27.1575
CA 24.5163 -0.436077 74.2179
CA 44.797 -4.37493 69.2428
CA 13.8181 17.276 73.162
CA 11.4401 -16.7347 55.6718
CA 22.5503 -9.72397 52.4355
CA 24.7682 -30.0618 55.5252
CA 16.1097 -20.2884 51.5377
CA 45.8032 -18.2339 59.3523
CA 21.2289 -15.2352 56.7424
CA 15.5592 -18.0115 30.4404
CA 16.4647 -28.9235 53.947
CA 16.3193 10.5145 76.6561
CA 23.993 -32.4847 44.2308
CA 38.3847 -1.98774 52.8813
CA 0.878325 -40.6838 44.9157
CA 21.7708 -27.7587 64.2813
CA 10.2347 12.3544 72.0693
CA 42.249 -4.92314 72.6441
CA -5.511 -3.28592 62.8967
CA 8.03009 -16.0365 32.6631
CA -3.70631 -48.5406 49.3509
CA 15.8696 -22.0332 56.5466
CA 32.6435 1.26321 57.3807
CA -0.363209 -16.147 66.1288
CA 23.235 -15.223 56.5743
CA 22.5454 -9.56834 21.5087
CA 9.85648 -0.773945 63.3236
CA 17.5693 -10.2696 23.0202
CA 10.4656 -24.9759 56.8866
CA 0.208173 -25.9004 40.9132
CA -5.22717 -11.9303 68.0117
CA -7.6164 0.92328 42.4072
CA 27.5334 -27.8711 49.1683
CA 46.0133 -13.4778 62.2008
CA 15.835 -10.6953 73.3461
CA 15.405 4.74564 73.6783
CA 23.9473 1.20312 57.1851
CA 30.0953 -1.79512 53.8427
CA 25.6473 -8.58593 59.2873
CA 4.50574 -24.7363 46.9346
CA 20.5459 -25.1846 55.1418
CA 21.1539 0.824247 67.929
CA 26.8168 -20.8807 41.6042
CA 13.4668 -20.4713 17.9374
CA 12.9645 -15.4509 39.4938
CA 18.9924 -13.8956 14.3234
CA 7.09452 -0.385044 62.5147
CA -2.28243 -16.5228 45.7987
CA 25.9312 -12.7572 42.825
CA 1.58305 -25.9998 49.6907
CA 13.0189 -46.4641 48.7049
CA 12.4349 -0.59595 83.071
CA 48.0523 -7.69012 64.1901
CA 5.26467 -10.7091 70.6027
CA -2.64008 -29.6176 55.1104
CA 23.5986 -19.6037 54.5474
CA 4.6103 -10.3001 60.811
CA 4.12964 -28.1336 38.4585
CA 2.85236 -42.612 69.1122
CA 19.457 4.98847 76.4604
CA 15.6278 19.5958 71.586
CA 16.2108 -36.765 52.8417
CA 7.32673 -45.6404 41.6592
CA 5.0917 -23.6335 45.5712
CA 28.2944 -32.6177 45.3614
CA 16.5124 -13.6333 64.1648
CA -7.0742 -9.71166 34.5388
CA -2.53371 -47.6969 55.8043
CA 23.9993 25.3355 73.5776
CA 49.6204 -9.80052 57.6104
CA 12.799 -25.1796 58.3834
CA 16.9318 -8.53538 43.7913
CA -5.35995 -35.3971 60.4839
CA 11.8171 -12.5031 56.4052
CA 24.7059 -7.58216 71.2176
CA 10.4261 2.08604 64.5445
CA 22.6463 -35.7448 59.2779
CA 50.4416 -11.3659 48.4977
CA 21.4638 -16.6545 51.5731
CA 18.2129 -13.5089 63.3449
CA 19.7505 -28.2044 46.3417
CA 3.14718 -15.1198 73.3163
CA 28.3642 -29.903 44.0297
CA 32.6781 -15.3343 62.7888
CA 5.32049 -23.5084 40.1849
CA 43.6154 -4.14751 53.8105
CA 17.6684 2.71022 42.7366
CA 23.4618 0.845375 53.1637
CA 15.6532 -8.94305 11.971
CA 30.2367 -1.72636 51.3828
CA 15.6834 -1.24981 45.9509
CA 1.84594 -32.4227 47.591
CA 10.8871 -4.00888 7.17897
CA 18.6122 -37.1841 48.8977
CA 37.2795 -19.2497 58.8108
CA 13.1163 -14.8896 62.467
CA -0.357007 -50.0834 71.1483
CA 8.831 -21.1029 43.6213
CA 36.8122 -10.512 59.6015
CA 21.8291 -18.6226 57.4756
CA 7.51258 -31.7759 51.9409
CA 15.1729 -1.61141 80.4936
CA -5.46802 -46.5323 58.7734
CA 47.6506 -12.1221 67.8686
CA 51.6951 -7.91573 57.3633
CA 22.2463 -10.3589 72.155
CA 19.0623 29.3719 69.9967
CA -4.40547 -17.5431 66.6618
CA -9.79681 -7.06976 45.5602
CA 18.0432 -8.0454 48.4887
CA 15.0329 -0.0540356 16.4089
CA 6.37137 -30.2001 47.6403
CA 17.071 -13.1006 35.6425
CA 14.0157 18.8063 71.07
CA 6.2937 -7.29117 18.5146
CA 16.5721 -36.7339 50.8918
CA 17.4435 -9.89725 39.1474
CA 23.4764 -3.94578 70.3685
CA 10.6102 -9.76531 71.6332
CA 19.9895 -12.1979 41.4342
CA 4.88912 -43.6449 75.9725
CA -7.12301 -31.0215 57.9131
CA 17.788 -22.5984 54.545
CA -5.24266 -7.2652 30.1255
CA 46.735 -9.34295 59.5963
CA 24.6269 -34.8997 44.9841
CA -16.4867 -30.2949 52.9387
CA 39.8798 -3.24211 63.0771
CA 39.5222 -3.40027 51.3209
CA 36.6281 -2.84392 69.2392
CA 22.3485 -31.1033 42.9738
CA 7.84941 -5.16914 59.0906
CA 22.3536 -25.8376 55.2455
CA 26.4332 -7.19133 55.8798
CA -5.17114 -41.7955 61.5474
CA 9.93865 -14.4415 55.0416
CA 26.7887 4.71021 42.8473
CA 15.4056 2.89803 78.2538
CA 4.36612 -44.7568 74.5291
CA -1.93164 -4.7063 41.1108
CA 3.22872 -17.3357 62.6179
CA 24.3857 -11.6944 59.405
CA -10.2002 -4.50071 44.9683
CA 17.9087 -4.08906 74.8662
CA 6.30444 -23.5869 55.8044
CA 12.5503 -13.2412 61.6913
CA 13.1811 1.89791 82.1608
CA 9.61275 -12.3056 67.0646
CA 26.8128 -26.3469 47.7806
CA 27.2206 -22.0063 49.886
CA 35.1092 -12.9982 63.8629
CA 28.2361 -15.0564 47.4031
CA 12.0303 -8.01133 72.9836
CA 26.2361 -33.2216 58.7324
CA 23.5357 -21.0768 57.7986
CA -2.62981 -43.4233 47.0304
CA 16.0261 -2.27903 76.1885
CA 29.5734 -10.6021 63.4198
CA 10.1865 -43.0106 45.8669
CA 16.6029 -16.9432 35.8549
CA 17.3006 -8.54428 52.2948
CA 40.7098 -6.12615 68.7762
CA -11.9208 -6.71294 52.6839
CA 41.9412 -5.37926 63.0223
CA 38.9013 -9.41198 66.2936
CA 18.5345 -25.1277 61.2415
CA 53.8571 -8.64975 54.1055
CA -3.94894 -5.86253 37.4028
CA 2.84298 -52.6117 67.1622
CA 33.2405 -7.97784 64.1219
CA 39.2459 -7.55925 71.4349
CA 39.7028 -7.94996 64.1333
CA 31.3609 -13.5567 42.9447
CA -11.2935 -6.48503 48.1518
CA 21.909 -23.5129 58.2902
CA 13.0548 -13.285 67.6252
CA 19.1768 -6.03547 46.7233
CA 18.5486 -13.2994 44.5477
CA 22.6167 -32.8958 43.0509
CA 16.7818 -17.4459 64.6816
CA 11.4993 -11.4923 60.4877
CA 11.9429 10.0137 80.4755
CA 18.8091 7.53763 41.8562
CA 24.6997 -9.39861 38.1888
CA 14.7642 -16.1137 70.4808
CA 9.90304 -42.7421 50.3886
CA 29.3842 -32.4119 41.1548
CA 22.4651 17.4834 45.2041
CA -2.60923 -12.9784 69.4288
CA 5.79099 -27.0993 38.4846
CA 24.289 -9.62454 36.2651
CA 13.6476 -22.1945 49.4692
CA 15.0315 -13.0754 36.6863
CA 16.9478 9.89791 80.105
CA 17.3717 -6.18595 47.282
CA 20.8538 -4.16103 50.0754
CA 4.84492 -14.0532 55.7483
CA 2.41072 -36.0237 52.7312
CA 17.1222 11.6636 79.1479
CA 16.3788 8.11299 38.9673
CA 13.8131 -16.9356 61.0908
CA 18.1428 3.6038 80.8982
CA 38.5363 -4.26082 72.1615
CA 19.5612 -10.2811 58.3405
CA 14.3339 12.1828 75.0136
CA 14.7657 24.5054 72.0413
CA -0.953834 -11.3102 47.718
CA 23.1371 -10.6143 50.26
CA 9.94148 -46.8612 44.6923
CA 15.6017 -12.361 61.6864
CA 7.79838 -46.8458 67.8644
CA 6.50402 -46.0659 69.3812
CA 18.4114 -36.6918 53.4193
CA 23.1552 -15.122 60.9574
CA 9.65172 -21.0007 22.5085
CA -1.47446 -6.7415 51.1241
CA 20.4575 9.52583 41.1261
CA -7.54675 -14.3548 67.5394
CA 27.03 -16.562 45.4141
CA 23.5617 0.724286 78.8588
CA 11.7196 -17.5769 32.8548
CA 22.2064 -9.51993 64.7774
