489

CA 27.7803 -29.4152 56.0127
CA 0.694313 -47.0714 60.412
CA 12.1074 -42.8753 51.4729
CA 47.312 -11.1755 54.6035
CA 31.3214 -16.7528 37.2207
CA 16.9832 -2.83383 49.7412
CA 32.6202 -7.50327 40.4797
CA -9.60502 -35.5573 62.041
CA 9.98622 -34.6703 56.4288
CA 8.51691 -18.8989 57.8468
CA 6.4554 -14.9732 57.9551
CA 18.1441 -3.35631 47.2573
CA 35.8895 -16.9853 59.5741
CA -9.51028 1.1206 43.7207
CA -3.4737 -28.4692 57.1185
CA 16.0149 -11.6405 40.2553
CA 41.5924 -0.410573 52.6763
CA 5.03607 -27.4904 49.3982
CA 8.97515 -44.1131 53.4551
CA 25.9898 -29.9216 55.6574
CA 8.04274 -17.2294 21.0279
CA 31.2385 -15.704 42.2634
CA 34.0355 -11.2854 37.4629
CA 17.7475 -3.1748 17.393
CA 11.7016 -23.8108 46.8218
CA -15.7415 -1.19621 48.7262
CA 6.64974 -7.78128 16.4375
CA 39.035 -6.23992 47.1964
CA -4.03511 -8.854 46.0273
CA 8.12822 -33.9717 51.1268
CA 25.7574 2.80761 77.7027
CA 26.9519 -5.52881 38.9296
CA 15.8657 -4.31252 65.2651
CA 10.1245 -16.288 15.8951
CA 13.1928 22.5555 68.5101
CA 20.5372 -20.9159 65.6483
CA -4.01638 2.4976 45.7413
CA 13.4472 -12.0434 47.3709
CA 35.4184 -4.09779 65.6134
CA 29.6924 -4.6261 69.9793
CA 19.1573 -12.0092 46.3684
CA -9.36274 2.78858 42.3316
CA 24.4445 -12.3434 37.6833
CA 18.6006 12.1561 78.5883
CA 31.4075 -20.4971 52.6529
CA 32.5225 -10.0191 63.6421
CA 32.6085 -7.01396 58.6723
CA 26.6406 -11.8946 64.7949
CA 9.239 -15.1226 59.7797
CA 46.0583 -17.4946 60.1654
CA 1.54132 -26.8836 52.9633
CA 11.2489 5.02926 61.193
CA 12.681 -3.53717 73.4492
CA 12.0927 0.583617 73.7767
CA 15.8878 -6.0996 72.097
CA 31.3901 -6.38679 56.4816
CA 13.2704 -40.9917 54.3527
CA 45.5144 -20.4727 60.083
CA 21.9184 -9.43792 55.2949
CA 29.914 -9.18615 63.5879
CA 1.57774 -1.49977 64.2439
CA 6.91297 -26.7661 49.6095
CA -9.14157 -3.81295 50.8282
CA 18.818 -2.89624 82.5009
CA -13.1218 -3.21525 49.6336
CA 32.5454 -10.2155 65.7519
CA -6.48954 -5.38816 47.7602
CA 24.951 -11.2554 51.8552
CA 38.2268 -3.98104 49.4869
CA 18.3576 7.32432 42.5541
CA 13.4778 6.54123 73.4713
CA 6.8943 3.29768 63.4496
CA 25.518 -34.283 52.3413
CA 20.936 -25.9197 46.4394
CA 18.6213 0.600729 52.9577
CA 13.9369 -15.3043 64.9779
CA 10.1628 -20.1626 22.5552
CA 31.4243 -32.2442 53.219
CA 10.4404 -19.0715 16.0002
CA 9.17856 -50.4468 68.9162
CA -5.32669 -11.059 43.5022
CA -4.78783 -8.92941 49.8923
CA -5.08475 -11.1653 47.629
CA 41.9295 -12.735 57.0276
CA 18.5053 5.10353 72.0082
CA 15.9827 -6.67 6.53448
CA 16.8679 8.80918 43.7915
CA 12.2791 -10.2521 70.8575
CA 33.2719 -0.108473 56.7347
CA 18.2175 -18.0102 58.3917
CA 22.7462 -1.79542 73.9957
CA 34.6061 -5.89092 69.0679
CA 22.4232 -26.4072 64.2535
CA 13.445 -23.5175 48.1278
CA 39.7871 1.10974 66.4211
CA 21.1296 -12.7848 48.7103
CA 14.191 -3.56735 9.95827
CA 24.5804 0.836958 75.9784
CA 18.9452 -10.0741 56.5246
CA 21.3385 -4.13749 51.1495
CA 21.2974 -41.1563 58.8109
CA -8.00135 -20.1431 67.8892
CA 16.2547 -40.4214 56.9268
CA 31.353 -27.6477 50.5643
CA 14.4549 -21.5911 17.7045
CA 48.0668 -12.7507 55.6198
CA 26.9825 -0.518539 78.5181
CA 34.1974 -5.68675 35.9891
CA 10.6053 -39.16 54.4807
CA 19.3073 -24.2369 53.2829
CA 1.01336 -14.9864 72.3569
CA -4.34705 -17.7697 70.371
CA 24.2362 -17.2554 59.805
CA 3.34516 -9.65987 17.8731
CA 17.6574 28.0354 69.9177
CA 27.1668 -6.76404 40.2967
CA 24.6883 2.4152 65.0434
CA 22.1743 -14.0192 49.9351
CA 37.9615 -14.2496 59.0355
CA 21.5507 -21.2613 36.8483
CA 27.2263 -33.6821 54.5361
CA 16.0004 -5.19991 16.0344
CA 17.3682 -15.5366 53.807
CA 32.6016 -6.17285 43.3949
CA 17.0414 5.80781 41.5223
CA -0.284396 -11.3165 70.3717
CA 11.02 -13.6741 19.2852
CA 21.4339 1.6382 66.84
CA 18.1423 2.06622 9.81304
CA 24.4355 3.66803 82.2852
CA -2.79444 -44.5585 67.9097
CA 11.3854 -18.6673 26.9766
CA 17.4266 1.22028 84.6267
CA -12.1923 -2.9103 53.7621
CA 5.62654 -9.82283 18.5564
CA 20.2391 -34.5782 59.9874
CA 41.11 -10.2783 57.0802
CA 25.0549 -13.7711 60.4549
CA 12.144 0.948205 68.184
CA 13.2337 2.10846 61.5138
CA 15.9955 -9.73215 44.3059
CA 42.9634 -14.5689 57.8394
CA 17.4965 -13.9207 35.3675
CA 5.18681 -14.4034 54.8642
CA -7.67922 3.01571 44.0804
CA -2.94006 -30.2474 49.6944
CA -5.48899 -44.1578 68.8317
CA 43.5489 -2.97808 50.7139
CA 17.5068 -0.242157 43.8564
CA 5.78527 -8.87287 57.2855
CA 18.415 0.811468 70.5761
CA 28.702 -8.04546 57.4549
CA 18.7593 10.414 44.227
CA 3.31668 -32.3917 51.8829
CA 18.8782 3.76324 66.5965
CA 21.0788 -11.6075 32.6099
CA 10.7665 -8.63784 15.4449
CA 26.9824 -11.1624 59.0837
CA 32.0908 -11.3332 41.1534
CA 23.6669 -8.81344 50.4296
CA -4.82715 -33.2601 56.7788
CA -11.832 0.334791 50.6717
CA 20.0275 5.40219 43.5991
CA -4.73735 -34.193 54.9437
CA 8.79818 -9.12972 15.4732
CA 17.8993 -17.2447 56.3143
CA 20.8036 23.5826 73.0606
CA 34.3275 -11.0832 39.2868
CA 26.7253 -35.3558 57.5
CA 34.7505 -4.7386 49.5879
CA -8.24325 -8.65176 33.4709
CA 18.3466 -11.8908 54.2991
CA 16.4025 4.27194 46.0272
CA 38.5534 -5.44715 69.0782
CA 30.1047 -15.0965 62.3263
CA 14.6879 -23.1573 52.919
CA 14.834 -9.47103 49.3549
CA 18.6293 -41.228 53.3341
CA 14.5157 -14.1844 68.1809
CA 22.8878 -18.5937 34.5304
CA 24.8914 -5.82631 48.8865
CA 24.4349 -15.0529 54.0275
CA 7.50895 -31.5024 51.8232
CA 19.9062 -26.8543 53.642
CA 22.2859 7.45219 44.2784
CA 32.8711 -9.43953 55.2802
CA -5.6412 -38.1418 60.6675
CA -2.34881 -46.5757 63.7901
CA 17.6127 -8.35309 45.5962
CA 36.1885 -3.9736 34.4846
CA 41.0893 0.0522338 62.2437
CA -8.45371 -14.8557 65.5027
CA 14.7492 -20.0852 66.6413
CA 21.3068 9.34407 71.7822
CA 20.3616 -28.9726 35.701
CA -14.6672 -4.17238 50.4203
CA 45.5997 -18.1639 63.3726
CA 15.4583 9.14953 74.2833
CA 42.8656 -15.8446 61.5758
CA 36.9661 -3.46013 47.413
CA 41.4156 -2.52785 71.6243
CA 39.6681 -8.004 49.951
CA -6.96015 -7.24958 29.5054
CA -7.48252 -11.3992 39.6513
CA 22.6742 -0.187612 80.7176
CA 16.1717 -21.2612 53.2861
CA 28.6247 -29.6226 61.0936
CA 35.4832 -13.2948 61.1367
CA 6.69611 1.36906 62.4402
CA 0.388999 -12.794 47.1756
CA -1.89564 -47.4052 72.0126
CA 24.4331 -10.5815 61.0962
CA 21.0472 -10.2311 53.2975
CA 17.8022 -11.4246 33.8821
CA 21.0273 -17.6462 49.39
CA 3.89383 -14.2412 69.9518
CA 9.65475 -11.6989 33.3007
CA 16.1451 3.62271 69.0214
CA -9.36325 -32.3017 57.4517
CA 43.1946 -1.8171 60.4157
CA 22.8419 -19.3644 59.4938
CA 23.5172 -9.0427 48.534
CA 14.3627 -8.74793 60.3316
CA 9.1933 -44.0535 69.5978
CA 22.6764 3.16579 74.2433
CA -4.55972 -13.8291 69.1653
CA 25.2936 -30.1622 60.7629
CA 39.9623 -4.79626 49.4642
CA 8.76731 -52.1122 66.9413
CA 20.8222 1.211 84.0733
CA 9.45752 -38.3836 44.8799
CA 25.2663 -25.1638 41.866
CA 42.9664 -18.932 55.9949
CA -2.39984 -38.2492 50.7966
CA 18.9348 -11.2898 49.8896
CA -3.67907 -11.3085 36.43
CA 19.4549 4.61163 69.3318
CA 43.0705 -4.10457 59.3265
CA 13.7238 3.85315 81.2019
CA 3.68509 -5.29351 54.8767
CA 46.5309 -20.1099 53.1945
CA 19.7686 14.2434 78.0654
CA 42.2222 -19.9353 61.8409
CA 19.1598 -8.45991 61.3985
CA 25.1475 0.0649948 81.2371
CA 24.0068 -28.0006 61.0804
CA 14.801 -16.3054 33.7363
CA 12.9367 5.09563 39.0456
CA 27.5058 -10.8409 62.4623
CA 19.8047 -1.18304 52.9615
CA 12.258 -16.0046 59.7189
CA 28.1288 -19.93 52.4323
CA -8.16278 0.878756 46.5595
CA 11.2942 4.08522 86.3356
CA -1.48799 -13.8359 68.4113
CA -4.83575 -47.7 67.1147
CA 20.5305 -29.7381 54.0912
CA 24.8184 -31.874 63.0937
CA 13.2158 -22.2172 39.7038
CA 11.9001 -11.7103 38.5946
CA 6.04386 -3.22644 54.7684
CA 20.0265 4.34406 53.9824
CA 27.6214 -13.841 61.1126
CA 42.6915 -21.304 57.6135
CA 12.5267 -14.9755 72.3123
CA 22.8804 -35.0103 53.7542
CA -2.48933 -2.5537 40.8842
CA -7.22236 -10.8245 36.8302
CA 24.2461 -15.4821 48.9695
CA 13.8181 17.276 73.162
CA 19.55 -47.6469 52.0462
CA 20.152 9.54376 45.8675
CA 30.5169 -1.70313 55.3914
CA 16.1097 -20.2884 51.5377
CA -0.784541 -4.29977 40.1967
CA 20.3756 -26.0429 43.2995
CA 29.7948 -20.4252 39.027
CA -6.66867 -17.8228 68.8587
CA 16.3193 10.5145 76.6561
CA 9.40606 -44.1823 40.1315
CA 4.86662 -5.20953 51.0557
CA 21.1089 -8.74706 35.9064
CA 30.1053 -19.8722 40.8241
CA -8.53869 -1.42758 48.817
CA 16.4959 -0.713449 84.6686
CA 26.0463 -2.90507 39.937
CA 17.5858 -0.0794481 64.4807
CA -13.2405 -4.84196 52.3104
CA 41.1607 4.4887 52.5583
CA 25.5742 -18.4384 61.7712
CA 14.667 -5.44763 55.7897
CA 12.5543 -19.8048 33.8786
CA 20.233 0.0533371 8.89251
CA 6.32428 0.0199061 65.3372
CA 9.8462 -13.2714 74.1501
CA 9.34978 -22.4007 46.7063
CA 6.48714 -5.06052 18.2123
CA -5.22717 -11.9303 68.0117
CA -7.6164 0.92328 42.4072
CA -7.73947 -2.58362 31.7174
CA 16.5743 13.1137 44.3227
CA 15.5097 -42.1936 49.3309
CA 22.6402 -11.2906 52.202
CA -5.43909 -42.7563 62.0949
CA 38.1151 0.559276 64.9258
CA 13.762 -1.09438 7.74027
CA 9.98032 11.8227 76.3674
CA 21.6584 -20.393 48.2531
CA 9.17061 -48.0328 71.4037
CA 41.7066 -7.40842 49.1651
CA 5.09505 -14.6023 60.5935
CA 13.4195 -10.9036 73.0017
CA 19.6818 -18.1053 50.7679
CA 17.4967 -12.0378 36.8113
CA 11.4662 -0.37923 80.5486
CA 18.5349 9.07545 72.3848
CA 0.507725 -47.2766 55.6247
CA 27.8538 -31.5479 50.9003
CA 10.7837 -17.3722 13.8725
CA 34.294 -16.9459 43.0186
CA 27.3192 -7.4587 52.2836
CA -2.64008 -29.6176 55.1104
CA 27.8625 -2.28731 57.4701
CA 7.07036 -48.0713 68.7884
CA 29.9894 -24.7955 49.1794
CA 13.7321 -22.8141 41.4742
CA 22.7825 -26.882 40.9511
CA 16.4618 16.8006 78.563
CA 17.7226 -5.26182 54.0307
CA 19.4429 -13.0364 57.3249
CA 19.0183 -9.57517 48.6633
CA 19.3449 -8.78146 59.3099
CA 11.3541 -5.06938 17.7115
CA -1.00779 -41.3171 47.1171
CA 22.1959 22.9644 68.9763
CA -2.54495 -14.5244 43.7048
CA 49.6204 -9.80052 57.6104
CA 17.216 9.46707 73.8434
CA 13.5955 -44.0128 46.4963
CA 41.8383 2.40668 64.7053
CA 1.21884 -6.59444 32.2634
CA 3.02878 -16.0697 51.9959
CA 17.2675 -7.94472 52.3049
CA 22.6463 -35.7448 59.2779
CA 23.731 -17.9958 63.4514
CA 19.9451 -5.98534 49.3649
CA 7.79782 -12.8197 57.8702
CA 29.349 -15.8505 64.8367
CA 44.2999 -12.3503 60.1242
CA 27.2471 -21.9259 59.6264
CA 41.3395 -12.4564 62.082
CA 5.32049 -23.5084 40.1849
CA 15.8394 25.1543 68.9734
CA -3.03051 -50.3897 71.6014
CA 11.432 -50.41 72.608
CA 44.477 -22.4042 57.926
CA 23.8702 -35.6558 62.4363
CA 15.6834 -1.24981 45.9509
CA 19.7454 -1.89539 80.251
CA 11.2974 17.4349 69.0747
CA 37.8618 -3.49245 65.364
CA 28.7407 -9.24419 60.1812
CA 32.1783 -9.77008 53.5847
CA 22.9357 -25.1258 44.4768
CA 8.831 -21.1029 43.6213
CA 16.2958 0.754913 78.4386
CA 5.46178 -12.2896 62.1119
CA 40.6171 -11.9602 55.1935
CA 13.4106 1.65849 88.9335
CA 9.36662 -12.5166 19.5528
CA -3.54622 0.149176 41.3413
CA 10.7996 -43.3978 43.1172
CA 16.5901 -3.57134 68.5834
CA -4.71718 -12.8694 29.5791
CA 26.8765 -7.03912 37.7131
CA -4.53291 -52.1421 73.7429
CA 16.1297 -7.29002 28.6401
CA 15.0329 -0.0540356 16.4089
CA 4.34671 -7.32881 53.4874
CA -1.21774 -50.5807 72.0779
CA 14.8885 -17.414 36.2137
CA 42.284 -10.8152 52.0881
CA 37.0281 -12.9121 67.7341
CA 19.2529 -16.5473 47.8546
CA 34.1219 -12.0456 56.9375
CA 10.6102 -9.76531 71.6332
CA 36.1588 -10.0723 36.3502
CA -1.40256 -25.2084 48.9031
CA 22.3405 -29.3576 38.9703
CA 25.0294 0.729847 53.557
CA 22.1934 -14.8822 43.0068
CA 18.8415 -33.8618 62.8435
CA 18.8122 -25.1141 46.4384
CA 23.9148 -35.5512 57.4673
CA 37.529 -9.33171 68.0773
CA -0.0802576 -33.6482 50.8208
CA 24.8367 -11.1383 39.2982
CA 22.3485 -31.1033 42.9738
CA 33.9421 -14.5676 60.9086
CA 4.56476 -17.9822 63.6405
CA -8.23526 -14.9883 69.1037
CA 5.43587 -12.1591 47.215
CA 9.93865 -14.4415 55.0416
CA -12.7525 -2.48215 46.9134
CA 18.0079 -1.73327 10.418
CA -6.44362 -6.60348 50.8269
CA 6.70095 11.7255 78.8079
CA 47.0317 -19.0541 51.6428
CA 11.549 -22.6643 49.4909
CA 23.916 -5.3285 53.0196
CA 12.4744 -9.91599 52.8727
CA 25.9267 -13.2714 53.4921
CA -4.21587 -31.3397 59.7017
CA 14.6544 -3.08287 11.9081
CA 44.8957 -15.2905 64.2839
CA 25.8633 -17.3781 38.2237
CA 39.9427 -18.3377 54.6639
CA 12.7361 -14.2553 20.312
CA 42.8428 -2.8539 54.9875
CA 4.43724 -53.7879 68.4863
CA 25.0417 -17.0048 36.5026
CA 14.6608 -2.37037 68.5143
CA -12.3949 -31.3921 54.2489
CA 14.669 -45.6179 52.058
CA 6.45614 -3.66117 50.9583
CA 6.65252 -13.9148 19.1938
CA 18.2551 0.243357 9.07694
CA 3.8016 -13.2531 49.9215
CA 2.25359 -4.71154 36.2835
CA 21.6418 -10.975 57.7949
CA 21.2594 -9.23056 38.936
CA 19.9875 -12.9064 52.5665
CA 15.4927 -19.0494 47.2305
CA 43.6593 -13.9307 66.1683
CA -1.76886 -9.52498 45.412
CA 17.7299 -15.0127 42.0636
CA 17.3139 7.5904 77.9732
CA 17.4839 -7.98854 30.0227
CA 10.0463 12.3354 71.513
CA 1.24848 -14.2878 63.5746
CA 33.6181 -10.4729 52.4819
CA 21.909 -23.5129 58.2902
CA 38.9844 -6.12306 52.006
CA 29.3472 1.21573 72.983
CA -4.49304 -46.4179 65.4061
CA -4.80854 -5.74371 49.5111
CA 14.255 4.48663 65.7262
CA 14.8674 -38.5501 48.8478
CA 3.26161 -41.4431 46.4452
CA 18.1692 -10.2666 28.5367
CA 13.4052 -0.599013 72.0433
CA 12.8455 -18.1773 30.4585
CA 24.2451 -19.6954 53.5992
CA 21.1905 -21.8889 55.9613
CA 8.6012 -12.3184 15.5676
CA 0.120597 -5.62682 38.0451
CA 2.74229 -53.5945 71.4613
CA 24.289 -9.62454 36.2651
CA 13.6476 -22.1945 49.4692
CA 16.9118 2.13134 73.739
CA 15.4268 7.54572 77.3789
CA 20.7832 -21.211 53.0779
CA -13.222 -15.5886 64.0362
CA 12.1538 -0.179522 85.0659
CA 17.425 23.0718 69.0447
CA 16.7835 6.39833 45.5464
CA 16.3362 -18.8913 56.5443
CA 24.1963 -8.93759 52.682
CA 20.812 -28.8177 33.5256
CA 0.682599 -6.94492 70.5035
CA -11.7485 -1.25732 51.7482
CA -2.17966 -31.1905 56.2817
CA 1.64654 -44.5248 65.4002
CA 11.568 13.2343 73.3318
CA 11.8064 0.758674 63.6362
CA 24.7782 -16.0729 63.9935
CA 27.0047 -19.3077 65.9618
CA 11.8174 -19.5286 17.1109
CA 18.4317 -22.9561 66.4287
CA 27.8721 -29.4601 63.9662
CA 19.8504 -40.1136 51.4771
CA 11.2554 -49.5888 66.0841
CA 16.9928 3.24041 70.7498
CA 16.485 -14.6132 40.0823
CA 25.7139 24.3574 67.9981
CA 22.5116 -19.1147 36.6823
CA 23.5617 0.724286 78.8588
CA 6.46473 -41.3299 48.8116
CA 44.2422 -12.1389 63.4769
