489

CA 5.84588 -21.4185 51.642
CA 48.15 -31.6115 54.0161
CA 2.34677 -11.8574 59.2749
CA 9.39166 -19.418 61.8086
CA -7.81358 -1.2422 53.0566
CA 33.5135 -14.7717 43.6632
CA -6.40047 -27.8856 56.2745
CA 2.09516 -30.5411 52.0917
CA 6.25047 -20.825 55.6748
CA 16.3075 9.99603 76.1541
CA 22.599 5.0423 80.9085
CA 11.3882 -12.2645 78.0075
CA 6.59309 -28.9697 45.4005
CA 35.2146 -6.23205 67.2119
CA 18.013 -1.11804 92.7735
CA 8.53674 -16.4625 33.5528
CA -13.4867 -11.7982 38.7736
CA 13.3376 -16.1228 55.6489
CA 7.98127 -24.7105 67.3295
CA 21.7322 -26.8954 39.8486
CA 17.3999 -21.3283 47.5765
CA 4.98939 -8.73989 53.2646
CA 20.9634 -12.4025 46.1911
CA 20.7244 -1.44258 56.8602
CA 7.25009 -13.7954 66.211
CA -7.56772 -4.44425 40.726
CA 35.0414 -11.282 57.4417
CA -4.61044 -17.1417 45.7981
CA 7.18836 -0.815315 77.282
CA 7.71121 -21.2861 40.8954
CA -10.091 -11.4698 44.0666
CA 28.4011 -10.337 51.6515
CA 21.9723 0.166012 82.2038
CA 54.8557 -16.7362 52.6298
CA -11.4443 1.17361 45.5047
CA 46.0304 -23.319 57.8913
CA -3.7364 -25.2891 56.2593
CA -12.0472 -9.24147 36.794
CA 17.8178 -11.3793 50.9666
CA 24.858 6.07118 54.9777
CA 25.034 -8.28342 70.676
CA 15.9432 -20.7454 68.384
CA 34.2857 -16.1748 55.638
CA 24.596 0.184966 71.6667
CA 18.8679 -14.6646 19.2308
CA 29.2054 -5.54156 50.7749
CA 15.863 -12.294 13.7406
CA 25.7527 -2.15914 46.3206
CA 25.9816 -2.89664 49.5511
CA 16.2845 8.29418 60.4019
CA 9.00491 -43.33 69.6994
CA 41.2196 -15.2599 45.4836
CA 13.6996 -10.8887 13.6399
CA 18.1642 -2.61668 77.7379
CA 14.5042 3.07145 66.0824
CA 42.5637 -26.0079 53.983
CA 26.8857 -27.1268 60.9922
CA -13.242 -3.32074 55.4871
CA 50.0064 -13.7743 48.3385
CA 13.9019 8.15034 40.9615
CA 8.73252 -24.4719 65.0672
CA 40.3589 -20.2329 56.2821
CA 23.7143 -23.6044 66.177
CA -3.85293 -6.61326 47.8038
CA 5.62237 -7.2598 62.6515
CA 15.6954 -16.3225 68.5207
CA -6.08951 -42.2613 63.6364
CA 8.12676 -2.46822 73.8047
CA 7.51682 -23.6559 45.8514
CA -9.11273 -6.63319 36.4209
CA 13.5273 -11.3113 21.1011
CA 13.7686 -14.2679 16.1791
CA 44.4096 -11.9803 53.804
CA 12.7159 -10.6664 47.6586
CA 17.8928 -11.7429 36.8841
CA -4.9263 -5.29568 53.4427
CA 27.5482 1.17269 69.2967
CA -1.17599 -6.3463 47.5687
CA 35.7282 -3.99481 63.5348
CA 16.3541 -8.0167 74.387
CA 16.8998 -25.2317 40.2547
CA 42.1919 -29.6081 53.2355
CA 23.46 -10.8374 46.3376
CA 19.6464 -14.2742 22.1875
CA 27.3114 -10.1391 71.5157
CA -0.226886 -10.3506 68.8401
CA 54.3067 -17.1443 56.4958
CA 0.236297 -25.7625 61.7414
CA 25.801 -1.55166 61.153
CA 42.6415 -34.7877 56.3561
CA 12.0301 7.29607 43.8986
CA 18.9449 -6.7565 71.1641
CA 25.3383 -36.3258 68.3009
CA 19.5872 -5.45779 84.9972
CA 18.5793 3.91745 59.4511
CA -9.05636 0.480588 49.7018
CA -6.42411 -31.345 56.1802
CA 4.96118 -15.2928 51.6929
CA 13.9039 -8.36253 63.1173
CA -3.18272 -44.0186 71.1133
CA -5.10466 -28.6583 54.1479
CA 18.1569 1.42886 96.4425
CA 11.6104 -17.2356 14.8449
CA 21.9099 -13.5512 44.4288
CA 14.1078 -19.9248 21.0262
CA 15.2765 1.00895 81.3632
CA 20.3214 -32.5999 57.8285
CA -1.41569 -33.1084 61.2884
CA 31.1228 -3.22782 60.0367
CA 33.2993 -9.32791 69.7203
CA -1.87367 -28.9323 56.6084
CA 18.1045 -9.06533 62.4581
CA 38.0477 -9.84175 72.127
CA 17.2676 -24.6398 36.3384
CA 18.0339 -19.8143 42.7759
CA 16.5324 -10.2375 51.718
CA 13.5573 -23.4193 66.4919
CA 2.84317 -14.1677 43.6289
CA 27.4047 -2.3098 76.1745
CA 7.03679 -28.2965 42.0687
CA 24.6863 -13.7349 37.4641
CA 18.3251 -13.7491 32.4905
CA 12.0425 -17.913 23.5634
CA 16.0691 0.729677 71.4442
CA 15.3264 -17.2581 57.4841
CA 51.604 -25.8505 57.5805
CA 18.3351 4.43765 71.1525
CA 16.0489 3.57149 93.1921
CA 21.6667 9.32386 79.7844
CA 14.7361 -11.9106 60.3206
CA 7.01633 -26.5819 62.1878
CA 24.1511 -8.6307 44.5143
CA 0.610174 -43.1468 74.5502
CA 36.5412 -6.78873 59.41
CA 24.9415 -18.681 34.1028
CA 6.37527 -13.2957 17.5332
CA 19.5317 3.04037 73.5921
CA 4.57193 -7.73137 57.4726
CA 7.21508 -1.16486 71.1687
CA 26.0678 -0.974386 48.3859
CA 46.4751 -13.8603 58.4754
CA 9.04877 -10.3834 32.3983
CA 14.6754 -16.7404 34.2772
CA 22.7595 -48.9278 54.3582
CA 23.8567 4.61003 59.4481
CA -14.0763 -13.1956 40.4163
CA 21.4303 -7.51479 18.6125
CA -6.01158 -17.6122 63.0283
CA 27.6634 -7.75655 50.4564
CA 4.30306 -2.71919 64.6278
CA 0.255432 -29.9431 59.9914
CA 19.5499 1.67349 62.2383
CA 16.4644 -23.5203 25.0044
CA 24.2931 -33.3273 65.0273
CA 25.0764 -16.8668 36.9623
CA 17.9595 -7.51175 36.6487
CA 14.1394 -19.7438 46.609
CA 19.7771 -38.032 55.7801
CA 23.0433 2.31805 62.7116
CA 46.8683 -19.4857 63.1473
CA 45.2298 -11.8883 58.3802
CA 46.4087 -15.1017 52.9641
CA 3.73367 -23.2114 52.1467
CA -2.67769 -39.0551 63.4037
CA -4.0232 -19.7414 62.2207
CA 25.8266 -29.0548 60.539
CA 36.9425 -14.2648 70.8659
CA 16.6106 -35.2434 50.3258
CA -1.7231 7.57618 37.786
CA -2.13838 -1.42589 52.8486
CA 28.8021 -25.3316 65.9869
CA 35.8923 -8.75336 68.9556
CA 25.1039 -42.0344 55.8478
CA 23.2763 -7.80013 70.2413
CA 21.6462 -37.6976 55.3585
CA 11.7752 -18.3925 66.9859
CA 10.2455 -19.3595 74.6736
CA 20.5599 -3.70427 70.1584
CA 10.7773 -20.7829 37.6841
CA 26.0147 3.93572 37.369
CA 14.4775 -10.723 23.4851
CA 12.1619 -49.8793 76.4749
CA 18.1317 5.35955 40.1927
CA 44.3183 -31.4045 54.64
CA 2.66753 -32.502 57.4529
CA 22.3656 -18.0634 33.0987
CA -5.6412 -38.1418 60.6675
CA 42.0232 -17.5432 47.5368
CA -12.0439 -3.61708 30.8434
CA 4.0283 -28.7728 41.1851
CA 24.3475 -10.3354 58.5673
CA 13.0354 -17.2816 30.7971
CA 12.2385 -24.5495 35.8632
CA -6.25821 1.47604 42.855
CA 10.0238 -22.6063 37.2436
CA 11.0874 -21.6403 18.6941
CA 13.0263 2.31761 40.2468
CA 22.3016 -14.1183 57.5553
CA 12.0267 -19.1344 73.8396
CA 7.32466 -13.6285 48.8357
CA 38.9799 -28.3454 52.089
CA 18.2823 7.03376 79.5327
CA 6.4345 -23.4728 57.433
CA 18.8505 -46.8944 52.3806
CA 40.8404 -17.3929 72.3873
CA 27.1064 -4.34915 62.4955
CA 8.26954 2.453 68.2188
CA -1.88001 -23.3851 58.2132
CA 17.2921 -27.59 42.0628
CA 8.22272 -6.93548 56.4516
CA -0.691153 -12.2915 49.2668
CA 29.1622 -14.1314 42.226
CA 8.99836 -4.17939 75.6
CA 34.9011 -34.8869 54.3577
CA 41.595 -16.0462 48.4752
CA 9.50711 -21.1981 19.4627
CA 38.5202 -4.48876 75.5906
CA 29.1493 -0.917148 58.7714
CA 27.8623 -28.0901 56.3516
CA 19.7728 -21.8257 37.5069
CA 20.5092 -39.7491 50.4601
CA 4.16859 -9.11528 68.6713
CA 9.40691 -8.927 50.1809
CA 16.8421 -3.41847 80.0163
CA 7.86849 2.64774 65.5758
CA 35.2868 -30.8379 52.498
CA 4.28025 -22.7655 17.3144
CA -2.63663 -19.5215 49.5615
CA 18.8897 -35.7188 57.3343
CA -0.216859 -17.6807 59.0631
CA 10.8046 -17.3981 56.5495
CA 15.7731 -21.7888 44.6704
CA 4.82011 -19.5158 50.1507
CA 21.4311 -6.53824 57.566
CA 7.11724 -19.9797 15.979
CA 22.6685 -4.23142 55.3265
CA 40.964 -7.73495 59.8212
CA 36.3747 -6.9538 71.8177
CA 10.6264 -21.0852 35.3464
CA 4.45823 -12.7382 64.7932
CA 11.6506 -21.9352 66.1496
CA 11.1277 -6.74524 45.8518
CA 43.4528 -14.23 50.8803
CA -8.09347 -9.37405 35.6435
CA 15.92 -16.3726 18.5111
CA 53.1472 -25.133 55.9718
CA 9.09051 -28.3836 67.4523
CA 8.26845 -18.8871 70.1356
CA 20.3572 -4.84642 42.4162
CA 56.949 -23.3751 58.633
CA -10.3749 -7.97668 36.9131
CA 15.1583 -8.66549 24.4729
CA 6.29502 -12.5714 58.8461
CA 11.6067 -9.10301 19.6736
CA 9.25087 -11.5028 23.1543
CA 23.913 6.47677 79.5346
CA -4.20058 -25.9217 48.8211
CA 18.4873 -24.0398 38.9677
CA 31.2399 -7.12856 74.395
CA -7.19425 -8.23369 65.0808
CA 20.5451 -28.922 65.2532
CA 1.68658 -13.4189 51.2599
CA 4.90188 -42.8806 72.2067
CA 6.34363 4.12717 66.6764
CA 13.6989 -16.6901 25.6375
CA -1.78352 -16.0057 61.7506
CA 11.5884 -10.2408 17.2351
CA 12.9994 -8.38774 51.9352
CA 16.0221 -11.6086 80.916
CA -3.87133 -39.3868 72.3698
CA 43.6505 -11.5646 74.5389
CA -1.74753 -8.17828 48.4371
CA 11.253 -19.6189 19.2029
CA 4.59226 -12.5613 50.5105
CA 8.12818 -3.62303 78.2577
CA 14.2568 -16.1796 67.1248
CA 34.6711 -12.808 49.0903
CA 14.4018 -21.3367 73.1353
CA 29.882 0.380318 71.8031
CA 14.834 -31.5788 53.6212
CA 17.0014 1.84748 40.0307
CA 11.9134 -7.81396 48.6194
CA 19.5531 -6.79499 39.6969
CA -1.44081 -14.9517 60.1262
CA 36.5572 -37.6946 63.5239
CA 10.2757 -19.2903 13.7932
CA 20.7663 -13.9808 37.3175
CA 7.02118 -11.4203 62.1151
CA 13.2263 -13.4923 75.6985
CA 21.4572 -23.01 50.456
CA 18.4144 -40.7244 55.1881
CA 26.4699 -25.2064 71.2808
CA 1.82844 -11.7121 48.6085
CA 6.10493 -19.1951 19.1407
CA 11.4601 -3.38452 67.3182
CA 18.2188 -37.9819 51.5097
CA 45.7447 -13.5834 78.3194
CA 23.7646 -41.0076 66.0852
CA 43.1501 -19.4381 55.8986
CA -10.4337 -1.0868 52.77
CA 44.0651 -29.8482 53.2067
CA -8.0504 -11.9969 34.7304
CA -9.47656 -1.40889 42.9197
CA -1.47523 -15.0821 45.0192
CA 42.0838 -14.884 63.7854
CA 23.7324 -7.31812 72.6772
CA 20.8835 -24.4391 53.4515
CA 23.7759 -25.0539 52.026
CA 5.21053 -12.6704 52.4114
CA 16.398 -18.1897 55.3692
CA -7.83638 -6.8004 33.0788
CA 8.15325 -11.0502 57.5703
CA 3.61403 -9.40544 62.0642
CA 3.5891 -12.541 69.0003
CA 56.8738 -17.9641 57.6364
CA 20.6767 -15.3041 35.2391
CA 20.68 -20.3619 29.7204
CA -8.9885 -5.05527 34.4301
CA 24.3004 -0.442285 58.6721
CA 12.2344 -11.8134 29.7774
CA 7.7516 -8.59171 70.3733
CA -2.02583 -20.8186 59.7287
CA 27.9344 1.75006 61.4108
CA 23.1337 -9.14477 52.7315
CA 11.6845 -7.81858 72.5258
CA 38.3241 -10.4675 76.3771
CA 12.6297 -14.1949 45.9547
CA 25.0088 -24.5082 72.7588
CA 12.5666 -42.4316 53.2886
CA 18.5593 7.74203 44.1048
CA 18.72 -23.136 42.1343
CA 43.5056 -12.3774 45.8799
CA -2.67901 -26.1937 54.2866
CA 33.4641 -10.7009 72.8997
CA 18.0941 -15.6728 24.9388
CA -10.7245 -1.05972 45.1026
CA 2.40323 -33.0093 55.5476
CA -3.81879 -23.3076 56.6345
CA 39.2238 -23.9127 54.4768
CA 48.4072 -13.1304 58.2201
CA 25.0332 -26.5358 55.29
CA 25.8652 -32.2549 62.1756
CA 20.4206 -5.55355 37.5997
CA -9.20081 -9.59503 43.5536
CA 27.7289 -40.5081 55.3372
CA 7.74672 2.97299 75.9015
CA -2.1072 -7.20446 71.9141
CA 4.23895 -17.7125 58.7327
CA -6.09671 -8.59253 55.4173
CA 22.7165 5.16729 52.4018
CA 28.8579 0.282135 66.2772
CA 13.2425 -10.5034 53.1021
CA 18.4852 -0.86792 64.3399
CA 13.8048 -34.6858 50.6618
CA 34.421 -8.1777 60.8888
CA 36.2403 -27.5615 51.4621
CA 11.2734 -9.15943 57.1556
CA -4.54197 -44.0222 66.251
CA 18.3448 5.72198 77.2693
CA -3.05759 -26.5241 58.6849
CA 18.6747 -11.0413 21.0154
CA 38.2831 -35.3422 60.7751
CA 23.9673 -17.0912 35.1998
CA 7.67264 -17.8317 72.7631
CA 8.26306 6.5353 66.3629
CA 10.3587 -20.3308 64.021
CA 18.4048 -4.54951 75.901
CA 22.273 5.49721 39.1143
CA -5.03201 -5.45254 50.3114
CA 17.3737 -18.7033 53.9219
CA 37.6371 -8.91036 68.2163
CA 9.18674 -4.2779 72.0267
CA 23.722 -3.46934 70.8511
CA -0.693207 -17.1949 63.8773
CA -5.41617 4.29297 39.3065
CA 26.0677 -27.82 51.196
CA 5.36871 -2.02943 66.1118
CA 15.1528 -40.7488 50.3617
CA 6.49597 -13.8058 61.967
CA 30.7818 -2.78251 74.5611
CA 13.4962 -17.6144 74.9087
CA 18.7358 0.817123 77.4178
CA 27.5061 -4.25901 76.5831
CA 6.60431 -7.81665 65.5978
CA 10.6257 -15.5696 76.8715
CA 34.1895 -4.5615 66.3973
CA 14.8638 -11.8128 77.6413
CA 10.331 -6.70016 30.0904
CA 45.8743 -30.2843 52.3618
CA 14.8376 -18.8207 34.3014
CA 12.6339 -22.0882 44.9271
CA 28.8363 -29.2104 57.4773
CA 10.5239 -5.59957 71.753
CA -6.17195 -0.274247 40.9025
CA 12.5195 -16.3222 32.27
CA 27.7769 1.94905 47.0452
CA 9.13793 -18.4074 15.9705
CA 11.1235 -16.3888 19.116
CA 15.6088 4.26211 87.9933
CA 20.8594 -31.8979 59.92
CA 21.7501 -6.40401 46.6396
CA -2.96324 -7.35548 52.3662
CA -8.68863 -7.23867 52.6993
CA 26.1858 -13.2944 45.3501
CA 17.6166 -21.0105 30.2862
CA -0.304229 -41.2641 75.281
CA 13.3411 9.51123 39.9169
CA 14.152 -12.1842 43.9784
CA 19.8273 -4.23095 88.7025
CA -1.26732 -3.2602 46.2964
CA 40.7245 -2.04827 75.3386
CA 49.6264 -24.3559 61.1767
CA -6.05496 -13.3203 64.9754
CA 4.87153 -14.7876 16.1527
CA 11.4724 -17.76 70.6025
CA 19.7927 -15.4826 33.1405
CA 10.8858 -35.3991 50.5985
CA 28.9162 -5.97788 46.9933
CA 45.5599 -10.0354 61.6299
CA 11.8612 -20.0642 39.1599
CA 21.9577 2.31428 36.9942
CA 17.735 3.58001 85.6635
CA 15.1935 1.45153 65.6781
CA 50.7648 -18.3218 65.1548
CA 5.08157 -14.9753 61.4258
CA 24.6459 -4.09431 72.4633
CA 22.151 -10.219 50.2027
CA -2.96592 -10.0611 48.137
CA 16.466 -21.2624 27.8241
CA 49.9905 -15.464 76.353
CA 2.70302 -31.7797 45.8496
CA 5.77052 -19.0399 58.9036
CA 15.7919 -12.5043 42.0831
CA 40.4235 -14.9168 59.6247
CA 22.6618 -28.4407 50.2327
CA -1.93096 -38.4047 59.334
CA 21.7041 6.50608 43.8081
CA 53.2494 -18.9784 55.8012
CA 21.3619 -9.90516 55.2618
CA 2.07484 -16.1908 52.4599
CA 24.4243 -27.9265 48.8564
CA 26.5042 -2.80915 72.7585
CA 10.4521 -47.4086 72.1949
CA 10.9543 -1.61196 74.2591
CA -10.0539 -4.96398 52.1804
CA 14.292 6.82022 64.5413
CA 25.6684 -10.1769 70.6711
CA 0.187898 -17.3781 51.409
CA 3.93757 -11.2541 66.5042
CA 26.5241 -30.8311 56.2763
CA -12.0217 -2.90203 34.3705
CA 48.5889 -23.3077 59.7021
CA 48.7684 -13.9106 63.3057
CA 0.948019 -6.10379 70.8625
CA 45.45 -14.4182 48.9996
CA 17.4369 -11.0609 58.2488
CA 37.9724 -31.6162 57.9554
CA 20.0405 -8.67073 54.8929
CA 13.5428 -18.6582 55.9825
CA 44.1599 -12.3591 56.5641
CA 9.29058 -16.4249 40.9913
CA 8.54125 -21.0279 63.3192
CA 50.8547 -15.4178 52.6823
CA 4.76377 -12.3761 54.517
CA 18.1221 -10.6289 46.9686
CA -6.21618 -22.8585 59.7675
CA -12.4757 -3.77966 43.779
CA 16.3668 -15.2343 16.1824
CA -7.73656 -8.49538 54.2952
CA 27.8196 4.08092 42.1324
CA 19.7363 -8.13027 76.5185
CA 23.076 -6.28999 43.1482
CA 29.2179 -12.8052 47.1824
CA 40.2337 -17.0737 50.9155
CA 1.96848 -30.7744 57.7795
CA 40.864 -10.3902 60.3714
CA -6.50952 -15.9629 66.3371
CA 18.6298 -44.414 55.4648
CA 14.1104 -14.3321 52.8834
CA 23.7683 -5.07834 56.9433
CA 20.8706 -34.6087 58.2552
CA 9.8498 -6.25454 77.1768
CA 7.64388 -13.3809 53.9977
CA 5.77871 -6.28194 60.5695
CA 1.39808 -30.955 50.3969
CA 18.0237 3.63642 81.4318
CA 1.69865 -11.6908 70.2467
CA 15.7677 4.18855 65.3376
CA 16.5098 -33.3344 56.9578
