489

CA 5.84588 -21.4185 51.642
CA 8.47071 -8.20944 75.727
CA 54.0341 -15.8448 49.7276
CA 23.0398 -39.6729 67.9637
CA 22.1486 1.65649 89.6193
CA 54.5016 -14.9144 75.0039
CA -6.40047 -27.8856 56.2745
CA 2.09516 -30.5411 52.0917
CA 18.2123 5.30309 60.6033
CA 16.3075 9.99603 76.1541
CA 12.6532 -20.9437 27.3457
CA 11.3882 -12.2645 78.0075
CA 6.59309 -28.9697 45.4005
CA 14.1452 -3.67247 84.083
CA 14.716 -20.8958 57.8192
CA 8.53674 -16.4625 33.5528
CA -13.4867 -11.7982 38.7736
CA 28.3636 -6.08657 47.5378
CA 7.98127 -24.7105 67.3295
CA 39.9865 -13.5963 54.5471
CA 17.3999 -21.3283 47.5765
CA 17.414 -6.00825 74.0465
CA 8.58467 -8.33237 58.0794
CA 14.5868 -14.7734 56.8662
CA 22.9371 -2.06645 62.7124
CA -7.56772 -4.44425 40.726
CA 35.0414 -11.282 57.4417
CA 3.13462 -3.96061 65.8228
CA 7.18836 -0.815315 77.282
CA 17.091 -19.0397 28.786
CA 8.11222 2.03354 72.4756
CA 28.4011 -10.337 51.6515
CA 7.84111 -18.0288 70.1
CA -6.30224 -23.9665 56.7113
CA -11.4443 1.17361 45.5047
CA 22.9857 -31.7727 51.7146
CA -3.7364 -25.2891 56.2593
CA -8.86248 -6.16578 38.3945
CA 23.6667 -1.12716 55.6156
CA 24.858 6.07118 54.9777
CA 34.0153 -21.9453 55.1153
CA 34.8136 -13.659 70.9887
CA 34.2857 -16.1748 55.638
CA 24.596 0.184966 71.6667
CA 18.8679 -14.6646 19.2308
CA 29.2054 -5.54156 50.7749
CA -3.98631 -15.0088 65.8663
CA 27.5005 -33.6461 54.1136
CA 25.9816 -2.89664 49.5511
CA 20.5264 -35.2146 66.1033
CA 9.00491 -43.33 69.6994
CA 22.2731 -13.6992 35.0041
CA 13.6996 -10.8887 13.6399
CA 18.1642 -2.61668 77.7379
CA -4.43522 -25.8243 50.0402
CA 5.50445 -29.5045 42.2109
CA 26.8857 -27.1268 60.9922
CA 25.5315 -2.18828 65.2776
CA 50.0064 -13.7743 48.3385
CA 13.9019 8.15034 40.9615
CA 4.80294 -18.725 20.8668
CA 40.3589 -20.2329 56.2821
CA 3.20549 -28.3964 51.1373
CA 34.5418 -6.57308 59.2018
CA -1.06411 -25.1627 57.6576
CA 37.4938 -21.236 76.9472
CA -6.08951 -42.2613 63.6364
CA 54.2752 -18.7582 59.546
CA 21.2328 4.80414 54.1811
CA -9.11273 -6.63319 36.4209
CA 6.78525 -43.0369 74.4767
CA 24.9658 -33.8627 50.0046
CA 26.0977 -5.56855 61.3012
CA 9.02104 10.4796 68.5147
CA 22.8681 -20.3872 58.425
CA 24.1956 -30.1834 62.1406
CA 27.5482 1.17269 69.2967
CA 48.1058 -18.7507 60.1051
CA 35.7282 -3.99481 63.5348
CA 20.3922 2.85046 90.484
CA 16.8998 -25.2317 40.2547
CA 39.461 -17.9915 70.146
CA 23.46 -10.8374 46.3376
CA 24.9928 -30.087 65.1873
CA 27.3114 -10.1391 71.5157
CA 11.0073 -16.6296 67.3329
CA 54.3067 -17.1443 56.4958
CA 0.236297 -25.7625 61.7414
CA 25.801 -1.55166 61.153
CA 42.6415 -34.7877 56.3561
CA 15.0057 -36.3838 48.3185
CA 18.9449 -6.7565 71.1641
CA 25.3383 -36.3258 68.3009
CA 19.5872 -5.45779 84.9972
CA 18.5793 3.91745 59.4511
CA 22.4685 -12.5927 70.9157
CA 22.627 -0.461433 83.1254
CA 4.96118 -15.2928 51.6929
CA 5.16558 -23.1586 41.737
CA -3.18272 -44.0186 71.1133
CA 15.4647 -4.671 78.8829
CA 18.1569 1.42886 96.4425
CA 28.3054 -8.40065 63.292
CA 11.8668 -15.9176 59.4722
CA 14.1078 -19.9248 21.0262
CA 29.7494 -24.8077 69.9893
CA 22.6206 -30.3585 50.5099
CA 3.13191 -42.0735 71.6058
CA 16.0751 -14.7401 24.8171
CA 33.2993 -9.32791 69.7203
CA -1.87367 -28.9323 56.6084
CA 5.93206 -8.75162 71.76
CA 38.0477 -9.84175 72.127
CA 20.2013 -1.98841 48.3871
CA 18.0339 -19.8143 42.7759
CA -6.42778 0.411711 44.1954
CA 24.5261 -2.68296 59.9575
CA -6.69829 4.6555 37.1202
CA 27.4047 -2.3098 76.1745
CA 29.6226 -31.6269 65.7218
CA 27.6368 -10.9364 68.7305
CA 18.3251 -13.7491 32.4905
CA 12.0425 -17.913 23.5634
CA 5.37509 -17.013 51.2015
CA -1.582 -4.73906 49.1919
CA 34.2325 -19.8515 55.5493
CA 18.3351 4.43765 71.1525
CA 41.7466 -14.5683 54.2026
CA 0.330946 -6.57726 58.5658
CA 21.1602 -32.7707 59.6328
CA -11.441 0.221099 57.5351
CA 17.1399 -4.45833 50.8455
CA 0.610174 -43.1468 74.5502
CA 36.5412 -6.78873 59.41
CA -10.8426 -10.8812 42.2678
CA 26.052 -20.5962 65.4308
CA 19.5317 3.04037 73.5921
CA 4.57557 -5.35178 62.6097
CA 20.997 -0.549755 93.6944
CA 15.7161 -45.438 55.865
CA 1.62679 -5.41869 68.4418
CA 9.04877 -10.3834 32.3983
CA 14.6754 -16.7404 34.2772
CA 20.6664 -16.4555 40.0858
CA 23.8567 4.61003 59.4481
CA -14.0763 -13.1956 40.4163
CA 21.4303 -7.51479 18.6125
CA 26.715 -9.6363 64.5861
CA 27.6634 -7.75655 50.4564
CA 14.9765 -14.5677 47.3894
CA 17.9862 3.31436 79.438
CA 19.7395 -5.89413 55.9813
CA 9.77379 -14.6257 68.6081
CA 3.46128 -25.9057 65.5603
CA 24.0126 -5.23901 46.2307
CA 14.2321 -12.7596 48.8755
CA 17.0692 -4.36115 84.9972
CA 18.456 -7.72262 18.6582
CA 26.5949 -23.0938 67.4861
CA -0.171266 -12.7439 71.1847
CA 14.0042 -25.0454 37.4739
CA 7.29716 -9.13848 56.4947
CA 29.9959 -27.9416 71.6691
CA 9.28564 -20.1748 53.5304
CA 14.1635 -21.7455 42.87
CA 25.8266 -29.0548 60.539
CA 36.9425 -14.2648 70.8659
CA 44.4376 -17.5256 55.3181
CA 10.156 -2.74427 50.2308
CA 3.18617 -19.948 77.2147
CA 40.565 -16.2591 62.5626
CA 22.1211 -20.8536 38.0075
CA 28.1872 -4.27297 51.7286
CA 12.1025 -24.9623 37.7413
CA 21.6462 -37.6976 55.3585
CA 11.7752 -18.3925 66.9859
CA 13.3616 -36.9404 45.7642
CA 23.2748 -22.6233 52.2279
CA 10.7773 -20.7829 37.6841
CA 26.0147 3.93572 37.369
CA 14.1804 -13.0854 56.1126
CA 12.1619 -49.8793 76.4749
CA 11.8216 -13.5438 54.8549
CA 22.997 -38.0706 57.9759
CA 22.0353 -6.04296 44.5913
CA 31.9114 -11.2928 68.3364
CA -5.6412 -38.1418 60.6675
CA 42.0232 -17.5432 47.5368
CA 29.8135 1.15564 77.7174
CA 4.0283 -28.7728 41.1851
CA 24.3475 -10.3354 58.5673
CA 44.5123 -28.8332 48.9111
CA 37.3461 -9.83436 60.0473
CA 25.815 4.26221 43.1159
CA 20.0496 1.23352 43.9098
CA 11.0874 -21.6403 18.6941
CA 36.6017 -1.88583 59.1113
CA 22.3016 -14.1183 57.5553
CA -3.0849 -14.9006 57.7081
CA 5.50619 -19.3717 55.8178
CA 12.5843 -15.4039 33.3306
CA -1.46544 -18.9886 57.4646
CA 6.4345 -23.4728 57.433
CA 18.8505 -46.8944 52.3806
CA 2.32168 -11.1991 50.9371
CA 27.1064 -4.34915 62.4955
CA 27.2735 -2.44812 67.7164
CA -1.88001 -23.3851 58.2132
CA 40.9539 -15.1791 78.6294
CA 42.9821 -13.8512 47.3658
CA -0.691153 -12.2915 49.2668
CA 13.1247 -19.0518 19.1407
CA 8.99836 -4.17939 75.6
CA 34.9011 -34.8869 54.3577
CA 41.595 -16.0462 48.4752
CA 9.50711 -21.1981 19.4627
CA 38.5202 -4.48876 75.5906
CA 29.1493 -0.917148 58.7714
CA 27.8623 -28.0901 56.3516
CA 18.0265 -23.9818 69.9139
CA 20.5092 -39.7491 50.4601
CA -3.57476 -17.4671 42.4856
CA -2.75831 -7.48113 55.8958
CA 25.1797 -30.6342 47.4
CA 15.566 -13.9871 52.0018
CA 1.64079 -22.2716 77.6733
CA 37.558 -21.0542 72.6803
CA 15.1261 -7.23735 60.1243
CA 18.8897 -35.7188 57.3343
CA 37.9519 -13.5248 72.3579
CA 26.2466 -2.18839 69.4528
CA 25.4775 -23.5991 63.0608
CA 4.82011 -19.5158 50.1507
CA 21.4311 -6.53824 57.566
CA 16.0801 -7.96423 80.8649
CA 22.6685 -4.23142 55.3265
CA 2.96578 -7.91238 64.0395
CA 36.3747 -6.9538 71.8177
CA 10.6264 -21.0852 35.3464
CA 5.79111 -17.7908 73.1498
CA 11.6506 -21.9352 66.1496
CA 3.58003 -19.2552 59.6952
CA 22.77 -11.4588 59.4355
CA -8.09347 -9.37405 35.6435
CA 15.92 -16.3726 18.5111
CA 53.1472 -25.133 55.9718
CA 9.34588 -25.7587 66.3466
CA 2.77919 -24.0166 63.6725
CA 48.1382 -15.7684 50.0048
CA 56.949 -23.3751 58.633
CA -10.3749 -7.97668 36.9131
CA 15.1583 -8.66549 24.4729
CA 21.1038 -5.34931 54.4106
CA 24.365 9.24421 55.9326
CA 30.9796 -6.04765 53.1822
CA 51.7813 -16.0115 61.4705
CA 31.2407 -4.54726 60.3994
CA 23.4566 1.56719 46.2026
CA 5.45459 -20.277 16.4073
CA -5.14607 -23.3991 51.4363
CA 22.9284 -4.63376 58.8747
CA 2.95669 -24.6473 61.6855
CA 4.90188 -42.8806 72.2067
CA 22.3814 7.4508 52.7691
CA -11.8368 -0.817019 47.9248
CA 16.6808 -9.84598 21.0304
CA 11.5884 -10.2408 17.2351
CA 12.9994 -8.38774 51.9352
CA 16.0221 -11.6086 80.916
CA -3.87133 -39.3868 72.3698
CA 23.2772 -24.9341 48.2334
CA -1.74753 -8.17828 48.4371
CA 11.253 -19.6189 19.2029
CA 10.7182 -5.72183 72.1035
CA 39.406 -4.23629 59.5231
CA 18.123 -0.123394 90.4952
CA 35.5825 -10.3905 66.7412
CA 14.4018 -21.3367 73.1353
CA 3.00969 -26.2742 42.0704
CA 39.8007 -14.4135 52.9288
CA 17.0014 1.84748 40.0307
CA 11.9134 -7.81396 48.6194
CA 16.7792 2.92559 71.9717
CA 33.8169 -26.6916 55.212
CA 24.3407 -11.1723 54.3938
CA 10.102 -48.8126 75.7467
CA 10.3598 0.961039 74.1918
CA 5.84874 -23.8436 55.0532
CA 20.0053 5.13178 96.1301
CA 20.5661 5.71467 47.9926
CA 18.4144 -40.7244 55.1881
CA 26.4699 -25.2064 71.2808
CA 1.82844 -11.7121 48.6085
CA 6.10493 -19.1951 19.1407
CA 11.726 -13.6854 65.568
CA -6.85884 -25.4395 58.4217
CA 45.7447 -13.5834 78.3194
CA 23.7646 -41.0076 66.0852
CA 20.4919 -11.8317 18.7975
CA -10.4337 -1.0868 52.77
CA 11.0227 -11.0884 65.7991
CA 17.7602 -14.3129 55.5523
CA -9.47656 -1.40889 42.9197
CA -1.47523 -15.0821 45.0192
CA 42.0838 -14.884 63.7854
CA 23.7324 -7.31812 72.6772
CA 20.8835 -24.4391 53.4515
CA -0.29437 -8.71864 71.0966
CA 5.21053 -12.6704 52.4114
CA 16.398 -18.1897 55.3692
CA -8.03961 1.05491 55.6745
CA -2.37006 -13.4454 66.0512
CA 21.9357 2.75468 42.6373
CA 43.8093 -12.8816 72.6598
CA 54.3711 -23.0231 58.5681
CA 42.6101 -12.3011 75.8667
CA 24.6536 -0.478421 62.3702
CA -8.9885 -5.05527 34.4301
CA 11.7722 -20.087 60.0884
CA 12.2344 -11.8134 29.7774
CA 7.7516 -8.59171 70.3733
CA 17.7553 -43.755 52.9297
CA 48.5954 -15.4734 52.1059
CA 14.4029 -15.5206 31.5187
CA 10.0265 -10.7547 72.877
CA 38.3241 -10.4675 76.3771
CA 14.2465 -40.3018 47.7589
CA 8.03365 -25.6971 19.0329
CA 21.7785 -16.0425 59.0894
CA 18.5593 7.74203 44.1048
CA 3.9506 -18.0762 56.215
CA 14.3371 -38.8967 45.336
CA 10.589 -5.12543 56.9061
CA 13.5542 -21.0783 36.3901
CA 20.8809 1.73635 88.0913
CA 44.8596 -15.0024 58.8504
CA 10.9597 -16.1459 36.5624
CA 11.8424 -18.8717 17.3395
CA 39.2238 -23.9127 54.4768
CA 48.4072 -13.1304 58.2201
CA 6.58093 -3.88641 72.2976
CA 24.873 -6.63234 60.2925
CA 14.6665 -3.21172 80.3103
CA -9.20081 -9.59503 43.5536
CA 11.5003 -36.9614 52.3532
CA 7.74672 2.97299 75.9015
CA -2.1072 -7.20446 71.9141
CA 4.23895 -17.7125 58.7327
CA -8.03461 -0.854136 48.865
CA 55.8766 -16.7057 58.736
CA 41.033 -38.2799 60.1795
CA 30.2806 -8.03775 63.9277
CA 18.4852 -0.86792 64.3399
CA 30.9779 -35.4525 54.0966
CA 24.4204 -13.1503 71.3066
CA 46.6745 -33.9284 53.5529
CA 11.2734 -9.15943 57.1556
CA -4.54197 -44.0222 66.251
CA 18.3448 5.72198 77.2693
CA 44.289 -9.44907 70.6382
CA 18.6747 -11.0413 21.0154
CA 38.2831 -35.3422 60.7751
CA 32.4271 -27.7387 55.9979
CA 7.67264 -17.8317 72.7631
CA 8.26306 6.5353 66.3629
CA 53.5401 -11.9365 50.3409
CA 18.4048 -4.54951 75.901
CA 22.273 5.49721 39.1143
CA -5.03201 -5.45254 50.3114
CA 17.3737 -18.7033 53.9219
CA 23.6024 -33.3169 58.3873
CA 9.18674 -4.2779 72.0267
CA -1.16202 -33.829 54.4804
CA -0.693207 -17.1949 63.8773
CA 36.8365 -19.2788 54.4815
CA 18.5293 -2.8599 91.4345
CA 20.8001 -36.7998 67.7899
CA 15.1528 -40.7488 50.3617
CA 13.6074 -6.35614 50.8598
CA 19.5999 -21.2859 24.3205
CA 21.9841 -27.1989 52.9007
CA 18.7358 0.817123 77.4178
CA 19.7998 -6.25246 22.0712
CA 6.60431 -7.81665 65.5978
CA 9.49684 1.89051 75.7603
CA 10.6795 -3.56139 76.7465
CA 17.9347 7.14157 81.5487
CA -10.0071 3.11313 55.5599
CA 25.3112 -6.06273 74.7499
CA 28.2642 -3.16334 78.0438
CA 0.95255 -29.7391 47.0541
CA 24.8784 5.349 44.3155
CA 27.3911 -6.71605 61.9671
CA 49.8067 -14.4787 74.543
CA 45.6658 -12.1833 55.3371
CA 34.3136 -22.6121 48.9064
CA 6.7194 -24.6507 69.7824
CA 5.37109 -6.0227 56.4728
CA 18.3857 -5.74328 48.3037
CA 22.2769 -2.64174 51.891
CA 21.7501 -6.40401 46.6396
CA -2.96324 -7.35548 52.3662
CA 9.93473 -18.5602 69.077
CA 13.4676 -11.0627 74.7566
CA 20.4897 -7.86732 89.1865
CA 59.6196 -16.2186 57.6605
CA 13.3411 9.51123 39.9169
CA 26.3853 -9.03459 48.5959
CA 38.1984 -14.453 63.3788
CA 37.775 -23.5338 51.8219
CA 12.4702 -5.71275 60.2442
CA 49.6264 -24.3559 61.1767
CA 11.917 -5.86423 50.1336
CA 4.87153 -14.7876 16.1527
CA 11.4724 -17.76 70.6025
CA 16.467 -19.883 59.4107
CA 10.8858 -35.3991 50.5985
CA 37.2146 -10.5198 58.0292
CA 0.050111 -23.2846 75.9932
CA 13.682 -11.4822 63.6368
CA 20.4591 2.94088 83.6018
CA 17.735 3.58001 85.6635
CA 39.0785 -22.2328 52.2648
CA 3.00743 -23.8594 43.699
CA 5.08157 -14.9753 61.4258
CA 24.6459 -4.09431 72.4633
CA -1.04568 -15.5006 68.1319
CA -2.96592 -10.0611 48.137
CA 41.1043 -14.2926 65.5045
CA 49.9905 -15.464 76.353
CA 2.70302 -31.7797 45.8496
CA 23.1142 -34.1495 55.564
CA -8.69581 -7.3518 32.7638
CA 20.4022 -31.9405 54.5998
CA 39.1787 -3.12211 63.0682
CA -1.93096 -38.4047 59.334
CA 21.7041 6.50608 43.8081
CA 44.354 -23.7191 60.7844
CA 29.6244 -5.44836 57.3598
CA 16.5821 -11.3657 14.7268
CA 14.5895 -6.7521 79.7426
CA 48.0067 -17.2879 51.4907
CA 10.4521 -47.4086 72.1949
CA 42.6777 -14.9114 79.4228
CA 13.3878 -12.3151 51.9581
CA -4.47186 2.81069 40.3918
CA 21.058 -44.3159 52.9073
CA 24.9702 9.26645 46.5191
CA 3.93757 -11.2541 66.5042
CA 18.457 -19.1585 35.2208
CA 23.3771 -3.72041 69.8273
CA 48.5889 -23.3077 59.7021
CA 48.7684 -13.9106 63.3057
CA 50.0259 -13.4659 53.7997
CA 45.45 -14.4182 48.9996
CA 17.4369 -11.0609 58.2488
CA 37.9724 -31.6162 57.9554
CA 20.0405 -8.67073 54.8929
CA 13.5428 -18.6582 55.9825
CA 44.1599 -12.3591 56.5641
CA 9.29058 -16.4249 40.9913
CA 1.59766 -22.9243 66.8211
CA 50.8547 -15.4178 52.6823
CA 9.18943 -31.6693 43.4535
CA 18.1221 -10.6289 46.9686
CA -6.21618 -22.8585 59.7675
CA 6.44234 -24.3292 66.2122
CA 16.3668 -15.2343 16.1824
CA 27.1347 10.1041 48.6314
CA 14.2307 -6.34084 69.479
CA 14.382 -38.5405 51.323
CA 0.0323657 -33.4605 58.9305
CA 5.26841 -13.9378 68.7575
CA 18.4516 -34.3712 61.9953
CA 11.4624 -16.9391 65.1467
CA 32.3624 -9.53954 68.0671
CA 20.1246 4.66429 88.4701
CA 18.6298 -44.414 55.4648
CA 53.7453 -17.5744 63.07
CA 44.9033 -30.5988 52.8062
CA 14.5287 -17.8528 46.653
CA 25.0309 -9.5592 49.7099
CA 14.3684 -9.81959 51.6369
CA 10.8297 4.41614 65.2383
CA 14.0074 -15.899 22.3686
CA 17.0883 -17.6139 24.105
CA 1.69865 -11.6908 70.2467
CA 15.7677 4.18855 65.3376
CA 16.5098 -33.3344 56.9578
