489

CA 5.84588 -21.4185 51.642
CA -4.30035 -8.13186 61.5992
CA 54.0341 -15.8448 49.7276
CA 0.530098 -12.86 43.994
CA 12.4244 -34.9232 49.0468
CA 4.24467 -17.3501 17.1427
CA 19.5486 -5.4107 50.9825
CA 20.5383 2.29519 96.2041
CA 18.2123 5.30309 60.6033
CA 10.3683 -15.3765 32.9425
CA 36.5498 -37.4072 58.9457
CA 28.4341 -24.4477 52.1573
CA 16.7805 -20.6476 39.1446
CA 35.3793 -17.7683 56.6795
CA 4.87867 -43.2845 74.4357
CA 8.53674 -16.4625 33.5528
CA 20.8863 0.783495 81.0001
CA 27.414 -30.5821 47.7627
CA 27.5894 -5.44817 81.4141
CA 39.9865 -13.5963 54.5471
CA 26.3731 9.67371 50.7211
CA 14.0785 -14.2348 61.1817
CA 5.21102 -28.7973 39.2374
CA 8.14874 -21.0217 46.9612
CA 5.69066 -2.77594 73.9151
CA -7.56772 -4.44425 40.726
CA 27.6789 -0.248038 43.3197
CA 20.6867 -27.9196 41.9542
CA 13.1073 -18.6041 29.2787
CA 7.09279 -44.4797 70.7896
CA 17.1935 -12.1305 39.5541
CA 43.685 -13.7804 60.5462
CA 28.545 -11.5903 55.2547
CA 24.5469 -17.982 36.4079
CA 17.3112 -12.0909 41.7362
CA 7.8372 -20.9385 34.6123
CA 24.4798 -1.65222 75.6707
CA 21.4476 -8.85225 59.8694
CA 50.8997 -24.0943 56.3426
CA 15.2172 -5.78509 21.2651
CA 34.0153 -21.9453 55.1153
CA 15.5591 -18.4428 62.6191
CA 29.9202 -29.8618 51.6471
CA 30.7146 -35.5469 64.0507
CA 2.02239 -6.46611 47.8768
CA 0.355928 -15.4388 45.6967
CA 11.3292 -3.92484 60.1304
CA 21.6197 -46.8935 56.1584
CA 29.6443 -29.3083 74.5523
CA 10.9898 -3.50412 50.5718
CA 9.00491 -43.33 69.6994
CA 17.7186 -4.25231 79.7638
CA -4.42304 -5.59806 67.1645
CA 11.3341 -15.7488 53.6404
CA 6.43182 -13.6901 74.631
CA 52.8204 -19.4172 76.0556
CA 26.8857 -27.1268 60.9922
CA 23.352 -37.8711 45.7786
CA 21.3248 0.2644 87.8339
CA 7.5715 -20.6528 15.8279
CA 21.6222 -13.4055 30.6639
CA 40.3589 -20.2329 56.2821
CA 26.1654 -4.79321 67.2748
CA 27.8403 -29.8607 76.0084
CA 16.5172 1.06732 57.593
CA 37.4938 -21.236 76.9472
CA -6.08951 -42.2613 63.6364
CA 14.9834 -19.4418 47.7169
CA 21.2328 4.80414 54.1811
CA 8.6837 -8.22695 61.0092
CA 6.32351 0.598599 64.4471
CA 0.079664 -5.05591 61.5982
CA 25.2658 -15.3413 62.1049
CA 6.62154 -18.8022 61.6296
CA -0.510235 -24.1789 48.053
CA -8.44814 -7.7498 39.2378
CA 10.7165 -30.0625 46.3913
CA 10.4899 -5.69642 80.0286
CA 35.7282 -3.99481 63.5348
CA 20.3922 2.85046 90.484
CA 16.8998 -25.2317 40.2547
CA 39.461 -17.9915 70.146
CA -9.64844 -12.347 37.7881
CA 20.213 -29.0734 48.055
CA 27.3114 -10.1391 71.5157
CA 37.7883 -7.17278 57.9651
CA 29.3288 5.60838 44.856
CA 16.5514 -14.4474 49.8639
CA 4.21881 -23.3756 60.9601
CA 28.3029 -11.2714 58.1003
CA 8.55318 -22.0474 44.9978
CA 9.46403 -23.7231 40.5788
CA 3.81962 -43.1805 77.0573
CA -10.9951 -38.4276 61.3503
CA 18.5793 3.91745 59.4511
CA 46.2586 -11.3125 75.3521
CA 14.3785 -10.5531 72.9734
CA 20.0262 -4.15324 59.4158
CA 6.02746 -11.2792 59.4943
CA -3.18272 -44.0186 71.1133
CA 24.771 0.354073 48.0099
CA 19.3183 -33.7906 54.9436
CA -2.7197 -9.78839 48.4367
CA 26.5768 0.0815916 47.4769
CA 14.1078 -19.9248 21.0262
CA 22.4936 -39.25 46.6046
CA -9.43948 -16.0359 41.9439
CA 0.5207 -29.3376 58.9585
CA 9.62089 -6.27455 62.1407
CA 12.1671 -41.9155 51.2445
CA 23.9751 -6.98082 63.5879
CA 5.93206 -8.75162 71.76
CA 31.6705 4.67835 40.742
CA 8.91085 -5.56408 75.1178
CA 22.2486 -24.5504 39.4405
CA -6.42778 0.411711 44.1954
CA 52.4276 -14.3216 61.5986
CA 14.0205 -13.3916 19.9728
CA 26.9717 -23.0172 72.5639
CA 29.6226 -31.6269 65.7218
CA 17.7482 -30.2688 43.8471
CA 42.6436 -30.7147 54.4679
CA 37.8354 -19.2116 71.6148
CA 15.5498 -18.082 33.5924
CA 15.0994 -21.0232 64.137
CA 15.4536 -23.3706 63.5105
CA 26.2943 2.55034 46.5052
CA 10.6306 -13.377 69.7723
CA 26.8639 -11.0919 44.9827
CA 44.5356 -14.8591 64.8441
CA 11.7094 -26.9955 36.8923
CA 17.1399 -4.45833 50.8455
CA 0.610174 -43.1468 74.5502
CA 36.5412 -6.78873 59.41
CA 9.23269 -9.49734 74.8219
CA 30.5635 -31.2004 58.6899
CA 19.5317 3.04037 73.5921
CA 7.78957 -24.5978 42.3731
CA 33.4897 -5.9672 71.4819
CA 37.8526 -17.5981 54.7871
CA 41.4887 -37.2076 57.3973
CA 18.457 -15.6793 63.4182
CA 16.63 -16.4186 27.9935
CA 13.057 -30.7674 46.8929
CA 15.8775 -13.8572 30.5183
CA 22.597 -4.06143 77.0517
CA 9.13993 -14.7457 39.3648
CA -4.30192 -26.6698 57.6046
CA 15.4582 -2.74336 44.6759
CA 18.1197 -10.2268 45.6462
CA 15.4642 -15.6297 53.2408
CA 20.2025 -0.408429 45.4849
CA 26.2367 3.53629 93.856
CA 55.2601 -14.8764 53.3709
CA 51.3853 -12.6064 62.4013
CA 1.29508 -51.3336 70.0723
CA 15.8588 -16.3717 41.7285
CA 24.5592 -21.3737 39.9302
CA 11.8823 -45.9264 56.1353
CA -0.171266 -12.7439 71.1847
CA 14.0042 -25.0454 37.4739
CA 18.8159 -35.6966 54.6704
CA 29.9959 -27.9416 71.6691
CA 12.4168 -24.365 46.1614
CA 12.4184 -17.298 16.6404
CA 16.9641 -12.8314 28.1897
CA 35.5978 -12.6542 72.7796
CA 17.6556 -37.2192 54.989
CA 12.4147 -10.137 75.8825
CA 4.03916 -20.522 63.3051
CA 30.1252 -9.61333 67.6216
CA 15.6369 -29.5163 60.6581
CA -12.8845 -11.3216 42.7633
CA 16.7911 -45.1965 56.0004
CA 6.91262 -14.2885 62.0736
CA 22.1811 0.80215 54.3164
CA 15.6007 -17.6389 66.6024
CA 6.82942 -21.1645 75.6623
CA 16.4186 -5.65436 70.994
CA 13.2598 -14.3717 54.0316
CA 0.677976 -6.32495 63.4477
CA 1.36899 -14.3758 68.0458
CA 34.4123 -33.1427 53.526
CA 13.1702 -3.45317 80.4349
CA 20.7972 -8.01778 61.8662
CA 25.5964 -3.82631 48.7548
CA 36.5445 -10.0832 74.4139
CA 5.26807 -5.41348 62.8388
CA 41.4254 -23.5138 70.6835
CA 43.1109 -36.011 54.0111
CA 39.1556 -16.4238 67.241
CA 12.4187 -5.80151 77.4386
CA 1.7387 -15.1147 63.5526
CA 17.1741 -4.98637 46.2754
CA 27.6706 -26.5572 69.4207
CA 6.64092 1.01959 74.608
CA 14.451 -8.42586 50.6994
CA 22.3016 -14.1183 57.5553
CA 45.109 -14.2958 76.1755
CA 2.89641 -25.4922 43.7963
CA 16.7949 -10.0091 28.9115
CA -1.01747 -9.29809 60.8486
CA 26.9588 -2.23682 47.3225
CA 7.58126 -32.1849 49.1214
CA 11.3357 -5.08519 49.095
CA 24.4259 -38.8767 50.2912
CA 1.15099 -27.0438 47.2249
CA 6.03759 -23.0562 60.3401
CA 8.79415 -1.66546 75.8491
CA 13.2418 -18.8014 49.5393
CA -4.66524 -35.6073 59.3836
CA 21.6951 -28.6628 49.3116
CA 40.6274 -31.3843 50.2394
CA 23.9236 -13.4495 32.2159
CA 20.6175 -1.59111 51.7071
CA 9.50711 -21.1981 19.4627
CA -10.357 -38.0203 56.5325
CA 9.33325 -19.0185 24.4149
CA 41.4934 -15.182 77.0638
CA 18.0265 -23.9818 69.9139
CA 10.2305 -44.911 68.9979
CA 1.34883 -13.2776 49.887
CA 37.2604 -21.9597 75.0785
CA 25.1797 -30.6342 47.4
CA 15.566 -13.9871 52.0018
CA 27.7861 -25.9068 62.0257
CA 24.078 -1.63257 53.2343
CA 15.1261 -7.23735 60.1243
CA -2.54955 -3.12575 63.3141
CA 51.0675 -13.9483 50.0813
CA 16.297 -8.27776 15.7113
CA -0.393593 -6.46627 66.4545
CA 4.82011 -19.5158 50.1507
CA 16.8094 -10.6002 67.0821
CA 21.2728 -18.5561 39.5442
CA 24.0371 -43.6963 52.7774
CA 18.2975 -15.8038 21.5164
CA 22.7149 -6.11074 62.6391
CA 38.1213 -3.94089 62.7389
CA 5.79111 -17.7908 73.1498
CA 11.6506 -21.9352 66.1496
CA 10.862 -10.4046 25.2508
CA 16.8901 2.12116 81.8424
CA 3.68421 -15.1634 48.4375
CA 15.92 -16.3726 18.5111
CA -2.6948 1.0489 45.305
CA 44.483 -11.3147 51.928
CA 27.4375 -28.6843 62.9051
CA 17.7688 -6.3386 72.9397
CA 36.5822 -36.8922 56.4768
CA 4.57128 -8.27769 52.472
CA 32.3565 -36.5127 64.3735
CA 18.2736 -13.4992 16.6174
CA 16.3905 -16.6494 50.6407
CA -4.66895 -10.4159 46.9579
CA 11.4199 -13.5685 36.1345
CA 31.2407 -4.54726 60.3994
CA -7.28722 -38.7308 59.416
CA 18.245 2.95679 55.0211
CA 18.9313 -2.24004 82.4316
CA 22.9284 -4.63376 58.8747
CA 11.9644 -37.3611 52.2064
CA 4.90188 -42.8806 72.2067
CA 14.5422 -34.0636 42.2024
CA -11.8368 -0.817019 47.9248
CA 17.8679 -6.52482 25.2856
CA 27.8942 -27.6718 48.4809
CA 26.4528 7.08043 42.9695
CA 29.1469 -1.8606 55.7513
CA 31.4665 -2.91858 71.9151
CA 4.36421 -26.3349 19.2726
CA 27.6794 -3.91578 45.4852
CA 11.253 -19.6189 19.2029
CA 4.35916 -28.4057 62.3228
CA 39.406 -4.23629 59.5231
CA 20.7565 -32.4232 55.1614
CA 20.1154 -46.2354 49.0476
CA 28.8321 -21.8997 64.4748
CA 17.2672 -9.45826 23.7364
CA 6.88783 -10.7357 51.1414
CA -7.34384 3.19829 46.571
CA 7.74408 -7.84553 71.7869
CA 23.1092 -1.42265 84.3057
CA 43.4949 -12.9537 44.0976
CA 24.3407 -11.1723 54.3938
CA 29.2235 -3.09504 58.9052
CA 3.463 -20.8371 65.8774
CA 48.0779 -16.6009 77.7042
CA 15.5095 -32.6618 56.893
CA 20.5661 5.71467 47.9926
CA 20.5039 -23.2572 50.0525
CA 26.4699 -25.2064 71.2808
CA 28.5249 -6.55424 69.986
CA 6.10493 -19.1951 19.1407
CA 11.726 -13.6854 65.568
CA 18.3229 -31.8824 60.9023
CA 45.7447 -13.5834 78.3194
CA 31.8466 -8.28126 45.954
CA 20.4919 -11.8317 18.7975
CA 2.44602 -25.9207 72.2551
CA 12.2733 -11.0872 48.1874
CA 28.298 -32.9458 53.8306
CA -9.47656 -1.40889 42.9197
CA 8.91314 -12.8336 64.0479
CA 8.53639 -2.9094 80.4452
CA 0.165402 -6.51219 56.1886
CA 11.1921 -9.0458 71.9044
CA -0.29437 -8.71864 71.0966
CA 8.08563 -12.6756 40.425
CA -8.71706 -40.5939 59.4073
CA 18.099 -10.839 70.3622
CA 22.125 -10.8309 58.1898
CA 46.163 -12.9603 44.9393
CA 34.6461 -14.5266 53.5641
CA 14.0755 -13.8517 23.5084
CA 42.6101 -12.3011 75.8667
CA 28.8335 -1.76843 47.3584
CA 28.5176 -6.43303 59.1192
CA 16.676 -3.41947 81.7064
CA 12.2344 -11.8134 29.7774
CA 21.8095 -36.0701 50.6396
CA 39.487 -17.7188 78.0068
CA 17.2668 -21.6731 50.223
CA 37.1242 -18.9262 76.8383
CA 24.612 -14.1167 59.1092
CA 9.03418 -23.9815 62.5487
CA 35.5612 -2.21606 63.9058
CA 8.03365 -25.6971 19.0329
CA 24.1876 -5.21866 70.0908
CA 3.16045 -1.68538 73.9136
CA 56.3352 -14.7477 63.1088
CA 16.0972 -18.6908 49.7003
CA 2.61314 -15.8488 61.8292
CA 26.5925 -45.046 44.6646
CA 13.4264 -1.90534 64.8153
CA 20.2852 -37.1517 59.5064
CA 44.8253 -29.6748 50.7774
CA 20.5082 -5.75679 53.2001
CA 39.2238 -23.9127 54.4768
CA 28.2016 -27.2711 71.0844
CA 18.7385 -2.13808 60.1849
CA 5.2929 -48.8156 69.8909
CA 30.8422 -24.6358 57.3652
CA -9.20081 -9.59503 43.5536
CA 15.9674 -21.9785 46.0027
CA 26.4208 -43.4926 55.6812
CA -2.1072 -7.20446 71.9141
CA -3.15792 -23.1076 72.6318
CA 13.7696 -27.3747 65.8786
CA 2.4952 -1.25998 64.6931
CA 41.033 -38.2799 60.1795
CA 13.8916 -20.6767 36.2218
CA 27.6162 -24.6267 66.0134
CA 30.9779 -35.4525 54.0966
CA 45.1277 -33.0184 63.8966
CA 40.3823 -10.8566 55.9722
CA 28.8144 4.08217 46.9761
CA -4.54197 -44.0222 66.251
CA 18.3448 5.72198 77.2693
CA 7.03803 -15.6899 42.145
CA 28.2381 -31.0446 60.2651
CA 48.5569 -11.0276 61.1851
CA 38.8588 -6.91646 61.7095
CA 7.90288 -17.7037 72.0256
CA 14.336 -47.6896 53.516
CA 11.3293 -22.6928 26.5669
CA 7.96964 -22.5562 36.7152
CA 42.2686 -32.6814 59.6013
CA 10.5967 -31.684 47.9383
CA 50.5092 -11.0335 74.8941
CA 26.3087 -1.59186 51.6869
CA 9.18674 -4.2779 72.0267
CA 21.0381 -16.6648 65.3777
CA 43.4488 -14.9252 73.9358
CA 36.8365 -19.2788 54.4815
CA 21.0988 -28.5125 45.8439
CA 15.6425 -14.2668 42.0444
CA 3.31398 -23.8705 68.0458
CA 11.3517 -15.9315 18.6372
CA 23.9886 -18.4925 40.4747
CA 24.2149 -13.1612 60.9602
CA 10.8015 -20.4857 46.7123
CA 4.25193 -25.4687 26.2969
CA 16.1055 -10.2939 68.8223
CA 42.5481 -30.5343 63.7281
CA 19.0242 -5.80956 46.9026
CA 17.9347 7.14157 81.5487
CA 5.41815 -12.7932 42.0098
CA 38.7734 -15.526 72.4835
CA 28.1911 -31.061 74.2156
CA 25.2105 -7.25879 79.1598
CA 29.687 -12.0868 71.7576
CA 15.2259 5.2683 82.964
CA 2.55218 -17.4458 51.6288
CA 45.6658 -12.1833 55.3371
CA 26.5092 -41.5645 47.4033
CA 24.1074 -26.1854 66.9111
CA 12.1597 -24.4759 49.0174
CA 13.6686 -24.2524 66.793
CA 16.8118 1.59916 87.1161
CA 35.7035 -9.45148 71.5868
CA 1.24123 -10.3377 45.1699
CA 20.4328 -29.0408 57.6302
CA 37.5773 -12.3538 56.9947
CA 27.1998 -28.4201 50.4602
CA 7.21968 -1.20046 64.9711
CA 27.2099 -44.9722 54.5397
CA 26.3853 -9.03459 48.5959
CA -1.59924 -20.6877 70.3731
CA 3.0999 -13.6926 60.815
CA 12.4702 -5.71275 60.2442
CA 9.25131 -9.38685 25.175
CA 8.99022 -17.458 54.8368
CA 14.4139 -12.5137 37.5218
CA 6.65951 -5.52604 66.2176
CA 26.8553 -20.9439 74.6658
CA 13.0042 -26.8424 45.6942
CA 8.99255 -26.9975 26.1527
CA 28.1671 -0.508732 57.1292
CA 38.3596 -34.6591 57.261
CA 14.9563 -48.6985 58.1993
CA 5.89512 -19.9307 65.1284
CA -0.521431 -14.4811 53.8431
CA 17.0516 9.83059 60.1161
CA 5.08157 -14.9753 61.4258
CA 12.1628 -20.749 31.5672
CA 46.3211 -35.6675 57.1737
CA 13.7048 -32.8188 43.6358
CA 46.0152 -9.37974 73.0191
CA 14.4643 -15.7759 38.9954
CA 10.2516 -14.4517 42.8057
CA 23.1142 -34.1495 55.564
CA 14.3599 -20.9124 51.0553
CA 25.3954 -1.55436 54.7782
CA 16.9918 -8.46598 22.2439
CA -7.31403 1.40054 40.5553
CA 4.82134 -31.9 47.0885
CA 15.1416 -21.7782 34.8638
CA 29.6244 -5.44836 57.3598
CA 21.1531 4.14385 94.8135
CA 6.69703 -3.16146 66.3899
CA 30.6197 -26.564 47.3919
CA 1.77744 -18.747 70.6136
CA -2.72067 -1.89801 65.6014
CA 12.7648 -20.8583 22.1588
CA 8.24309 -3.36317 61.901
CA 21.058 -44.3159 52.9073
CA 24.9702 9.26645 46.5191
CA 19.5671 -2.45656 45.1087
CA 14.9967 -5.68717 80.0908
CA 14.0207 -6.13787 22.9713
CA 48.5889 -23.3077 59.7021
CA 13.3511 -8.21431 56.8007
CA 16.7339 5.43291 51.68
CA 45.45 -14.4182 48.9996
CA 15.262 -12.272 50.3359
CA 27.91 -37.2004 47.9015
CA 20.0405 -8.67073 54.8929
CA 49.4642 -26.4917 47.2073
CA 15.0573 -19.2953 29.7444
CA 18.6897 1.45948 53.1361
CA 25.4414 -12.8294 57.7761
CA 4.93877 -23.9152 14.7705
CA 9.18943 -31.6693 43.4535
CA 12.4343 -21.5339 24.648
CA 15.2673 -46.5315 58.672
CA 6.44234 -24.3292 66.2122
CA 13.7057 -16.1149 19.1102
CA -1.44036 -31.853 60.4975
CA 46.0867 -12.1779 60.895
CA 20.0213 1.96586 55.7429
CA 23.2171 -6.70822 79.5876
CA 16.0392 -15.1242 16.5616
CA 18.4516 -34.3712 61.9953
CA 11.0719 -17.1322 42.9881
CA 15.3054 -13.9066 54.5171
CA 26.5689 -42.0404 50.1663
CA 18.6298 -44.414 55.4648
CA 25.0452 4.34227 47.7762
CA 44.9033 -30.5988 52.8062
CA 8.28691 -7.88095 73.6012
CA 45.2088 -20.1337 59.3528
CA 9.28813 -28.7634 42.1859
CA 10.8297 4.41614 65.2383
CA 45.4511 -28.7833 49.1803
CA 17.0883 -17.6139 24.105
CA 30.3432 -29.2569 59.8055
CA 15.7677 4.18855 65.3376
CA 31.9353 -34.5847 65.7158
