489

CA 9.43149 1.30857 66.5451
CA -4.08691 -39.2338 70.8806
CA 45.712 -11.8601 75.3096
CA 31.922 -4.29267 67.6903
CA 31.6148 -19.3308 61.2037
CA -5.65878 -37.3082 63.0038
CA 44.1161 -33.7496 55.1815
CA 11.0633 -17.7096 46.0362
CA 28.1707 -6.95895 75.0446
CA 1.55613 -12.0317 56.5326
CA 8.75465 -31.0142 38.5563
CA 42.7329 -9.17495 73.1412
CA 5.8482 -17.7519 29.1614
CA 16.6439 -11.6003 27.7386
CA 27.5114 -22.5488 43.1263
CA 8.53674 -16.4625 33.5528
CA 14.4297 -15.9788 62.0453
CA 15.6566 -25.4563 56.5124
CA 15.0656 -17.1413 20.3796
CA 39.9865 -13.5963 54.5471
CA 17.7845 -32.9376 53.3364
CA 0.287939 -14.1302 41.4645
CA 37.2435 8.55242 52.5775
CA 25.6992 -23.7106 51.4601
CA 20.6004 -4.20326 66.8687
CA 26.0759 -5.78061 59.1382
CA -5.92511 -13.6641 46.4797
CA 28.9652 -30.9623 44.6241
CA 15.8994 -0.679476 49.0798
CA -5.06992 -46.7147 64.7226
CA 15.9049 -1.59759 60.3458
CA 17.6368 -13.6907 32.1908
CA 13.7964 -9.48781 72.249
CA 18.6213 -36.1766 45.4873
CA 41.2018 -21.7861 60.595
CA 14.3058 -13.2271 62.3228
CA 32.7178 -28.7219 78.0056
CA 51.6152 -13.2349 78.4414
CA 38.8786 -32.8418 66.6619
CA -6.04672 -16.1703 62.8672
CA 27.8524 5.55597 47.6233
CA 26.4478 7.16677 52.4204
CA 18.0263 3.44224 80.4324
CA 42.4742 -14.7699 51.9253
CA -3.70762 -11.9491 41.5785
CA 13.4344 -29.8045 56.392
CA 45.6022 -8.80863 62.8738
CA -8.7951 -10.6938 48.7268
CA 30.4 -33.1371 57.9401
CA 39.7725 -15.3301 60.3795
CA 34.9846 -18.316 55.4431
CA -0.414305 -16.145 44.4556
CA 41.2011 -41.1252 56.6019
CA 45.1549 -36.9867 58.3015
CA 8.21827 -20.3681 27.7958
CA 30.0383 -22.9706 73.3046
CA 28.119 -24.5474 73.3802
CA 9.37474 -15.7924 63.7731
CA 44.1863 -18.2451 63.6723
CA 35 -23.0254 56.2901
CA 11.2104 -12.8959 63.2866
CA 1.49627 -26.3114 59.2331
CA 24.8182 -12.1382 51.2932
CA 25.8733 -2.66519 46.7078
CA 14.9234 -2.76165 59.0709
CA 37.6855 -4.88117 64.6892
CA 11.5962 -47.3107 55.9558
CA -5.49562 -47.0134 66.8616
CA 13.4509 -28.0095 50.4072
CA 8.45275 -15.317 53.1667
CA 10.0989 -32.9121 46.4123
CA 31.5246 -31.9536 65.1715
CA 31.2785 -27.7529 50.1953
CA 35.3372 -22.229 62.7402
CA 25.9429 -20.9785 73.3596
CA -8.44814 -7.7498 39.2378
CA 17.733 -28.2689 53.3825
CA 13.0067 -6.79682 24.3072
CA 35.7282 -3.99481 63.5348
CA 20.3922 2.85046 90.484
CA 10.5255 5.17419 68.802
CA 20.1224 -4.13223 48.9152
CA 25.1063 -7.80135 45.7912
CA 16.3468 -21.8659 69.6163
CA 46.4184 -13.042 72.7656
CA -1.61038 -40.29 58.3066
CA 11.0125 -18.1342 19.2366
CA -1.93308 -34.1594 57.2545
CA 5.77044 -22.6133 50.1496
CA 20.4699 -6.08132 83.1661
CA 16.7374 -0.710244 68.4896
CA 21.7899 -21.7236 51.0086
CA 5.08482 -11.804 64.6046
CA 22.3988 -18.6132 43.5578
CA 14.4156 -8.68 28.9196
CA 10.3426 -23.8653 40.726
CA 7.87891 -18.2235 53.6443
CA 4.69328 -23.4292 69.3424
CA 22.7913 -37.0446 50.3742
CA 15.1165 1.85443 66.7019
CA 9.60509 -31.4017 40.6394
CA 17.0283 -6.60124 79.0033
CA 11.35 -14.9093 53.1581
CA -5.70599 -35.682 66.6878
CA 37.7813 -38.3838 53.7642
CA 8.34263 -25.1063 35.9071
CA 31.0234 -16.3732 62.7111
CA 17.2309 -19.174 36.5183
CA 11.6629 -21.911 39.5506
CA -10.4348 0.528198 40.3888
CA 12.8698 -21.0036 54.2439
CA -10.8917 -3.92936 33.8112
CA 42.2685 -27.4751 60.1444
CA 37.5154 -8.93046 57.6563
CA 21.3806 -20.0177 72.2224
CA 17.2152 -28.8302 44.7228
CA 34.9654 -29.8806 66.1483
CA -0.10079 -18.3377 45.8949
CA 22.3616 -10.67 64.7485
CA 18.862 0.67558 63.2105
CA 6.78734 -33.5104 37.7942
CA 33.0673 -32.5553 56.0651
CA 18.1146 -13.8653 45.8814
CA 2.40925 -9.95458 64.9741
CA 31.986 -34.9638 62.0117
CA 19.9443 2.23257 75.2379
CA 27.5272 6.67332 49.0683
CA 18.8151 -14.3788 57.8856
CA 52.6139 -12.1903 64.7938
CA 44.5356 -14.8591 64.8441
CA 16.5091 -5.88457 42.1357
CA 20.0268 -34.8986 57.0523
CA 0.610174 -43.1468 74.5502
CA 46.9187 -8.29179 60.0329
CA 15.8706 -12.1282 71.3751
CA 19.3469 -15.1607 61.4372
CA 44.7664 -15.6376 55.8018
CA 5.19085 -18.8714 41.5015
CA -1.12168 -13.6261 47.6253
CA 0.862375 -8.66634 55.3734
CA -4.75073 -40.8269 67.24
CA 23.0593 -12.7517 62.4943
CA 24.5926 -30.3238 68.0783
CA 8.24097 -20.292 35.811
CA 19.093 -6.45471 44.5538
CA 2.07424 -21.5798 19.7636
CA 12.1432 2.6374 66.0237
CA 31.4245 5.01903 54.6931
CA 42.9284 -14.995 49.1139
CA 23.3488 -16.005 17.1254
CA 11.1092 -28.4818 47.0515
CA 17.2448 -5.52539 80.7553
CA 31.3007 0.489703 68.2029
CA 10.8336 -1.99356 79.306
CA -12.2279 -16.5165 55.3628
CA 13.4162 -16.3748 20.2288
CA 38.006 -16.2958 52.7468
CA 38.3117 -21.0576 59.7174
CA 21.0045 -4.24727 63.5688
CA 37.5898 -27.0017 57.4488
CA 31.569 -14.5297 66.1555
CA 22.4881 -13.4901 71.8455
CA 28.5374 -34.4071 44.4105
CA 10.8328 0.409527 67.7819
CA -2.21052 -5.05469 35.9058
CA 28.3994 -11.6023 54.4486
CA -3.26006 -34.7348 47.7163
CA 48.9647 -12.092 75.4727
CA 15.476 -0.96301 67.2104
CA 22.9943 -27.9214 39.5504
CA 27.7113 -11.4265 40.3113
CA 16.8922 -31.5634 41.5467
CA 19.2356 -38.184 55.6459
CA 22.1497 -41.4488 48.8018
CA -10.476 -3.96962 38.3147
CA 16.4791 1.0675 44.5419
CA 13.2826 -5.55425 17.7035
CA 11.173 -7.88879 41.6423
CA 37.3325 -27.4204 64.0022
CA -6.50379 -3.66589 37.714
CA 42.5993 -24.6493 50.386
CA 6.13085 -25.8709 64.5127
CA 2.61629 -28.4064 63.252
CA -4.98224 -11.7899 50.4433
CA 39.8741 -15.21 53.5856
CA 39.4488 -10.2287 68.6272
CA 47.7357 -5.85088 61.3466
CA 18.6838 -10.5163 56.1362
CA 35.26 -26.7914 66.4467
CA 35.5326 -8.95188 68.4227
CA 0.994995 -29.486 51.2172
CA 14.9284 -9.92538 30.4804
CA -0.077873 -10.9809 51.0928
CA 16.7342 -9.66709 43.0816
CA 22.2171 -36.4192 46.577
CA 19.7639 -6.58176 49.5673
CA 44.7973 -23.797 59.146
CA 11.551 -25.019 55.2582
CA 35.2067 -4.34735 58.7734
CA 28.4703 -10.9407 59.2714
CA 7.55943 -16.7399 63.4773
CA 2.23044 -18.7814 59.8986
CA 16.6921 4.85508 73.8597
CA 8.64125 -13.5684 54.4017
CA 17.5096 -11.4728 30.7224
CA 25.6145 -40.5237 51.2668
CA 1.15099 -27.0438 47.2249
CA 25.6291 -32.3709 45.99
CA 19.9102 -32.0895 50.7662
CA 3.59702 -12.5405 60.8198
CA -8.68822 -13.051 48.5516
CA 37.5689 -4.81231 58.2145
CA 17.9807 -31.6027 46.7531
CA -1.05732 -18.3137 40.7159
CA 19.3136 -35.9581 54.6396
CA 9.50711 -21.1981 19.4627
CA 18.9109 -5.29948 81.5997
CA 13.9208 0.139694 76.3829
CA 25.1375 -6.27355 74.3526
CA -3.81163 -47.7766 70.4751
CA 22.4715 -0.132152 38.3927
CA 1.34883 -13.2776 49.887
CA 38.3547 -25.1785 58.0431
CA 41.3088 -38.5666 53.5319
CA 17.1316 -5.73127 83.1459
CA 14.0857 -41.3154 56.9515
CA 33.9716 -46.4133 42.8035
CA 28.3611 -42.9188 49.2682
CA 24.2382 1.59652 46.9498
CA -2.89958 -8.2835 46.6956
CA 35.5317 -21.8428 65.311
CA 7.01685 -21.3345 43.9737
CA 23.1919 -5.85768 79.451
CA 15.0849 -41.9195 53.2281
CA 24.8503 -11.3673 74.1472
CA 10.3938 -48.8763 56.3241
CA 18.542 -26.9364 62.5308
CA 34.6431 -19.5527 69.206
CA 29.4394 2.52855 46.7379
CA 5.79111 -17.7908 73.1498
CA 23.8159 -25.9183 56.197
CA 10.862 -10.4046 25.2508
CA 9.12791 -47.7682 51.9912
CA -4.58479 -33.0853 53.2448
CA 15.92 -16.3726 18.5111
CA -0.938639 -38.8686 64.0672
CA 43.0433 -36.5717 53.9325
CA 18.9046 -2.60777 36.8784
CA 29.5524 2.54116 48.8359
CA 36.5822 -36.8922 56.4768
CA 10.039 -17.5812 23.93
CA 21.6709 -13.7334 18.2056
CA 18.2736 -13.4992 16.6174
CA 34.711 -28.6801 76.7392
CA 42.4467 -15.7436 76.1868
CA 41.1882 -33.121 49.1252
CA 35.7366 -15.0697 60.0252
CA 19.7339 3.062 79.7977
CA 5.03119 -23.4103 19.66
CA 38.4332 -31.0398 70.7726
CA 22.1581 -23.6193 51.0518
CA 13.5058 -21.6352 48.4531
CA 14.7594 -21.055 54.4449
CA 9.74364 -6.94501 67.6017
CA -9.7646 -9.515 52.1863
CA -10.3921 -13.6998 51.3329
CA 1.68635 -10.9348 63.633
CA 22.2238 -6.63454 56.4004
CA 34.269 -6.88332 67.6904
CA 19.5929 -11.9254 42.3127
CA 16.1057 -19.8438 51.0907
CA 10.1671 -23.4786 61.8897
CA 37.4619 -20.4985 64.5655
CA 21.7974 -40.5701 55.0397
CA 5.78953 -15.7113 33.7524
CA 11.8103 -46.7043 51.5276
CA 31.9942 -6.05115 75.9569
CA 26.4347 -23.7504 68.7164
CA 10.1646 -34.8374 38.5243
CA 20.1386 -9.1218 70.5281
CA -1.38666 -32.2385 49.667
CA 42.6682 -33.7047 63.4886
CA -1.56972 -39.453 62.2007
CA 10.5592 -4.56165 21.6182
CA 28.4155 -13.092 42.6035
CA -4.49183 -43.9487 76.4087
CA -5.4584 -7.27353 35.703
CA 8.30659 -19.9561 64.5635
CA 5.89578 -8.65061 39.0989
CA 13.3267 -2.69131 51.3568
CA 5.67684 -14.4032 77.8339
CA 20.7429 -9.99409 64.0001
CA 51.5781 -13.4806 59.195
CA 6.10493 -19.1951 19.1407
CA 2.65925 -41.3901 74.6944
CA 24.0001 -14.2095 73.4389
CA -5.20034 -4.15164 43.6964
CA 14.6757 -7.54889 58.1668
CA 40.5183 -6.46167 68.9297
CA 51.6261 -14.2403 63.4285
CA 15.0497 -7.68732 70.834
CA 9.28643 -21.5554 64.5508
CA 11.7396 -8.2508 56.5706
CA 1.42164 -19.6195 67.7301
CA 28.0694 -30.57 67.9835
CA 36.9618 -22.3224 68.7151
CA 19.3525 -29.1362 40.4166
CA 7.34844 -20.1978 73.241
CA 21.3573 -20.9044 63.1701
CA 19.6454 -8.03902 64.9989
CA -1.55751 -15.8321 61.082
CA 7.93565 -11.2547 68.6163
CA 5.13116 -27.1121 62.6898
CA 25.7523 -26.9484 54.0832
CA 22.4701 -24.1091 47.2254
CA -6.32194 -9.94494 50.9291
CA 32.7113 -26.7187 76.2633
CA 23.9753 -38.0311 53.9552
CA 35.0631 -24.8246 64.9914
CA 39.4252 -24.3957 56.6537
CA -2.82389 -9.1278 43.9688
CA 4.25284 -16.8932 34.6186
CA 16.3836 2.82717 49.8495
CA 16.8116 3.02154 82.5342
CA 20.5927 -6.75353 53.9389
CA 24.5335 -23.5357 70.5363
CA -5.12876 -43.0452 73.1715
CA 8.41681 -43.3481 49.0874
CA 9.32832 -27.6333 47.2307
CA -4.2206 -16.5716 43.6407
CA 18.3041 -1.61052 43.5651
CA 22.1854 -12.1231 59.4409
CA 12.8123 -1.44682 76.6877
CA 44.3222 -10.7056 58.1311
CA 12.3876 -21.6959 23.606
CA 32.9832 -29.9425 76.1551
CA 5.589 -20.9963 17.9118
CA 25.0972 -27.3072 72.9876
CA 12.7802 -18.3748 21.5022
CA 10.6147 -44.1159 58.2833
CA 8.7545 -33.2241 44.9846
CA 12.4033 -8.43752 18.9053
CA 21.113 -1.94592 45.9971
CA 21.4247 -3.34735 44.4996
CA -15.0662 -11.9844 53.289
CA 19.4286 -23.2865 56.2449
CA 4.53004 -30.3555 59.4528
CA 16.2082 -1.38744 76.4805
CA 21.7511 -7.8972 48.3104
CA 19.8734 -39.2178 54.3064
CA 33.858 -18.5749 73.0044
CA 39.5514 -17.3048 56.7634
CA 45.1632 -33.5677 52.0613
CA 32.0171 9.64032 50.9
CA 13.0498 -10.759 19.8888
CA 36.1999 -11.2984 65.8618
CA 25.9622 -14.1959 17.5111
CA 7.72244 -21.2956 45.9226
CA 15.0189 -10.5735 28.0419
CA 48.2949 -11.049 71.3946
CA 49.2385 -11.1136 61.6464
CA 26.453 12.2735 50.3903
CA 13.4339 -2.3487 19.2923
CA 6.96342 -22.0032 63.7606
CA 24.6522 -21.676 44.9606
CA 48.4091 -14.8727 73.778
CA 7.45472 -18.8182 51.7526
CA 24.056 -20.3086 64.8906
CA 20.4125 -26.4318 60.9276
CA 39.7946 -38.4576 58.209
CA 27.4583 -22.1212 63.4115
CA 31.2059 -17.369 40.2586
CA 17.0126 -23.5905 68.6156
CA 11.7997 -41.0543 51.7043
CA 27.9688 -11.6208 62.8534
CA 12.5177 -21.7643 56.3198
CA 23.1271 -6.71725 54.5615
CA 6.95082 -14.8504 75.0338
CA 30.9314 -25.4571 51.1814
CA 29.4593 -39.9914 52.6726
CA 10.1806 -13.5006 59.562
CA 10.7597 -8.52201 74.5169
CA 43.7768 -23.5643 61.1689
CA 21.1746 -17.2858 35.6818
CA 15.5523 -40.4214 59.8424
CA 31.8815 -24.6597 55.5276
CA 18.4735 -6.12782 76.4333
CA 5.41815 -12.7932 42.0098
CA 4.03962 -36.8704 72.8931
CA 39.723 -9.89712 70.8933
CA -6.68829 -3.15878 44.4791
CA 22.7635 -25.4656 61.5721
CA 43.2197 -22.9982 57.6828
CA 30.5807 -23.3485 56.1746
CA 34.5657 -22.1032 72.4651
CA 53.761 -16.3321 62.2933
CA 48.9605 -11.9151 68.7647
CA 33.5954 -16.2616 65.4937
CA 14.711 -22.2528 35.5017
CA 16.8118 1.59916 87.1161
CA -5.24863 -40.6224 60.8698
CA 1.24123 -10.3377 45.1699
CA 10.0809 -20.8558 38.7172
CA 38.9336 -30.5512 66.0891
CA 19.1949 -45.6481 54.5264
CA 2.62313 -16.1861 45.6141
CA 1.49644 -17.4293 63.1558
CA 20.9177 2.04613 78.7797
CA 14.8884 4.2906 73.1848
CA 9.65187 -42.6428 60.809
CA 8.06253 -18.9493 32.1756
CA 47.6285 -8.41072 74.0236
CA 8.99022 -17.458 54.8368
CA 8.7245 -6.72468 57.1118
CA 16.215 -39.825 62.8591
CA -4.67091 -14.7289 59.0532
CA 6.83415 -30.7677 38.7609
CA 11.1607 5.86691 70.3765
CA -3.65533 -38.1958 61.2016
CA 18.1482 -7.31367 41.96
CA 20.8431 -26.9588 51.9568
CA 45.3321 -10.2191 61.0781
CA -0.521431 -14.4811 53.8431
CA 44.6188 -29.5971 51.7695
CA 35.0079 -18.0553 64.112
CA 19.1699 -38.4244 58.3545
CA 5.76899 -21.0335 62.5522
CA 32.683 -18.951 65.7946
CA 13.738 3.73242 74.7018
CA 45.072 -36.9413 56.1261
CA 47.2054 -7.19243 62.4623
CA 32.4674 6.90506 52.4204
CA -4.13581 -13.4522 40.6272
CA -2.48334 -4.2233 39.1877
CA 12.0679 -20.5954 63.0046
CA 23.7939 -3.75103 50.2812
CA 11.5619 -11.5403 59.0657
CA 22.6028 -5.58648 45.9895
CA 10.9574 -44.0056 53.7807
CA 21.1531 4.14385 94.8135
CA 28.1234 10.1322 51.2627
CA 5.54287 -17.7375 70.0524
CA 5.27002 -15.0273 70.57
CA 14.3104 -16.8611 65.4659
CA 13.6856 -19.0196 45.1993
CA 30.0874 -31.9457 67.6164
CA 25.8968 -9.73583 44.4898
CA 24.1156 -41.8227 45.8887
CA 16.5885 -8.57151 74.7865
CA 19.222 -32.4861 44.2408
CA 13.8219 -19.4811 59.9956
CA 44.6003 -18.7965 68.2809
CA 32.2481 -44.9378 47.2853
CA -0.637619 -17.5342 42.7047
CA -0.498966 -24.2305 45.1231
CA 5.00916 -31.3323 43.1975
CA 38.5411 -13.2622 69.2122
CA 42.94 -18.3062 72.6113
CA 19.3747 -3.12992 67.7892
CA 28.3165 -20.6669 43.0426
CA -9.19239 -7.04412 32.9095
CA 18.2961 -27.7034 47.1079
CA 12.701 -29.4831 46.6385
CA 23.409 -18.5065 47.7384
CA 1.38716 -8.87847 63.2297
CA 47.3223 -19.2298 72.7788
CA -0.859921 -35.4157 59.2267
CA 14.3235 -17.3858 18.6977
CA 15.8352 4.21135 69.3213
CA 17.2161 -22.3205 53.0626
CA 31.6526 -26.4339 79.4186
CA 10.6544 -23.2629 38.7924
CA 44.3037 -9.1984 67.3568
CA 21.243 -9.2698 77.1936
CA 38.5667 8.01442 50.9936
CA -16.6625 -11.2432 50.0875
CA 37.8027 -11.1533 69.912
CA -2.92725 -13.4531 50.7248
CA 8.96668 -9.14282 23.0748
CA 15.6737 -13.4833 24.6248
CA 23.423 0.836568 79.3833
CA 29.9638 1.91782 66.0603
CA 23.7582 -8.13197 64.2851
CA 3.85395 -24.4129 49.2427
CA 17.714 -34.3553 40.06
CA 6.53722 5.13192 67.8652
CA 21.7412 4.00841 99.4523
CA 15.3031 -20.974 66.4587
CA 19.1478 -4.56821 40.909
