489

CA 13.669 -0.0728984 65.1672
CA -4.08691 -39.2338 70.8806
CA 28.586 -18.858 53.5948
CA 31.922 -4.29267 67.6903
CA 19.5183 -36.865 47.9198
CA 7.909 -21.499 31.3133
CA 22.9616 -25.6688 68.1106
CA 11.0633 -17.7096 46.0362
CA 21.4333 -7.4249 76.8366
CA 19.1134 -16.5991 37.4574
CA 8.75465 -31.0142 38.5563
CA 8.59053 -10.8644 54.0272
CA 5.8482 -17.7519 29.1614
CA 23.2119 -9.97224 75.765
CA 27.5114 -22.5488 43.1263
CA 8.53674 -16.4625 33.5528
CA 21.5924 -4.26666 77.8648
CA 4.67675 -17.5248 60.9467
CA 30.8626 -13.6241 68.6541
CA 23.347 5.21515 47.9716
CA 17.7845 -32.9376 53.3364
CA 32.4384 -20.3148 44.9445
CA 26.6279 -25.7393 49.0931
CA -3.54602 -9.44781 44.5643
CA 4.7949 -21.7323 71.9364
CA 37.446 -21.7247 58.4514
CA -5.92511 -13.6641 46.4797
CA 46.1846 -17.432 56.745
CA 13.1841 -1.60586 73.3321
CA 28.2993 -42.0009 44.8971
CA 15.9049 -1.59759 60.3458
CA 52.6076 -12.8421 67.4305
CA 13.7964 -9.48781 72.249
CA 32.6537 -37.2704 63.2594
CA 41.2018 -21.7861 60.595
CA 41.0845 -19.3526 64.0416
CA -3.33189 -10.1062 59.7046
CA 19.427 -14.4888 53.2214
CA 38.8786 -32.8418 66.6619
CA 17.2494 -25.2375 56.0267
CA 27.8524 5.55597 47.6233
CA 17.8249 1.77232 68.6614
CA 21.7412 -1.66487 40.6828
CA 13.3787 -16.1815 58.3955
CA 21.3494 -0.148161 50.9774
CA -0.302333 -35.0451 52.4934
CA 13.5155 -35.603 50.5008
CA 31.208 -21.2548 68.5392
CA 30.4 -33.1371 57.9401
CA 39.7725 -15.3301 60.3795
CA 0.104564 -11.4776 53.8264
CA 16.1991 -27.8385 56.5941
CA 41.2011 -41.1252 56.6019
CA -18.0031 -15.2588 49.3235
CA 5.13557 -21.0629 45.4365
CA 30.0383 -22.9706 73.3046
CA 28.119 -24.5474 73.3802
CA 20.158 -18.364 41.9015
CA 22.5133 1.69813 47.6748
CA 7.81848 -14.3251 65.5821
CA 15.7887 -27.9654 45.7554
CA 47.549 -21.6893 60.6037
CA 23.7657 -36.405 44.9298
CA 25.8733 -2.66519 46.7078
CA 9.19054 -12.6718 61.3247
CA 28.1996 -20.1192 14.0051
CA -19.7116 -8.81953 50.7253
CA 15.8754 -9.51491 44.9765
CA 25.9527 -15.3397 38.1135
CA 29.9898 -40.133 43.2732
CA 10.0989 -32.9121 46.4123
CA 31.5246 -31.9536 65.1715
CA -7.43991 -17.9146 46.9405
CA 38.4408 -15.055 56.6289
CA 16.817 -35.5141 48.7345
CA -2.90045 -39.7635 72.2848
CA 17.733 -28.2689 53.3825
CA 2.69531 -15.2084 72.557
CA 35.7282 -3.99481 63.5348
CA 20.3922 2.85046 90.484
CA 10.5255 5.17419 68.802
CA 16.6089 -21.8809 72.2065
CA 25.1063 -7.80135 45.7912
CA -5.05847 -9.21179 55.7529
CA 36.5011 -23.0686 76.9376
CA 20.5319 -26.6959 42.2181
CA 11.0125 -18.1342 19.2366
CA -1.93308 -34.1594 57.2545
CA 5.77044 -22.6133 50.1496
CA 20.4699 -6.08132 83.1661
CA 16.7374 -0.710244 68.4896
CA 1.01449 -30.7077 47.5273
CA 35.6799 -9.95675 70.9351
CA 22.3988 -18.6132 43.5578
CA 34.7195 -20.9461 64.3653
CA 4.73915 -19.7205 22.6147
CA 18.1208 -9.44145 41.6023
CA -18.7787 -13.77 52.2645
CA 32.9184 -21.9781 75.7675
CA 40.2758 -20.5648 66.4194
CA 9.60509 -31.4017 40.6394
CA 13.305 -17.2119 44.5764
CA 11.35 -14.9093 53.1581
CA 31.484 -22.9441 59.1999
CA -6.5731 -12.869 60.1634
CA 8.34263 -25.1063 35.9071
CA 31.0234 -16.3732 62.7111
CA 17.2309 -19.174 36.5183
CA 11.6629 -21.911 39.5506
CA 2.09424 -11.6752 58.5334
CA 7.29706 -16.8388 49.5211
CA 27.764 -41.7144 52.0812
CA 42.2685 -27.4751 60.1444
CA 51.4241 -11.6653 76.1606
CA 7.25069 -22.1779 42.0135
CA 14.3116 -5.96246 25.6466
CA 34.9654 -29.8806 66.1483
CA -0.10079 -18.3377 45.8949
CA 22.3616 -10.67 64.7485
CA 18.862 0.67558 63.2105
CA 25.9989 -6.29213 42.9295
CA 17.8177 -29.4512 55.6223
CA 31.6726 8.30673 48.4446
CA 38.7363 -31.8678 58.773
CA 31.986 -34.9638 62.0117
CA 44.7281 -9.44038 74.3949
CA 27.5272 6.67332 49.0683
CA 31.4481 -36.0371 69.5494
CA 7.0492 -25.0799 71.5531
CA 44.5356 -14.8591 64.8441
CA 16.5091 -5.88457 42.1357
CA 51.5602 -14.3562 66.3479
CA 16.2025 -4.02016 79.6601
CA 12.5804 1.20701 49.3656
CA 26.1338 -21.4224 56.5404
CA 21.4046 -27.2285 68.0746
CA 43.2837 -21.176 63.3678
CA 13.0192 -28.7032 59.8175
CA 34.0395 -18.2731 45.7298
CA 31.9221 -12.8354 64.5433
CA 13.5955 -7.53505 71.9339
CA 48.7901 -16.0548 56.7303
CA 10.5959 -15.0537 60.6736
CA 7.20381 -6.76055 44.0701
CA 40.856 -39.2638 51.5464
CA 2.07424 -21.5798 19.7636
CA 20.8749 -10.0099 66.6249
CA 11.974 -6.14105 19.7263
CA 42.9284 -14.995 49.1139
CA 23.3488 -16.005 17.1254
CA 13.532 -1.08841 48.4284
CA 17.2448 -5.52539 80.7553
CA 31.3007 0.489703 68.2029
CA 44.899 -35.545 51.4661
CA -12.2279 -16.5165 55.3628
CA 7.92919 -35.3924 45.0154
CA 38.006 -16.2958 52.7468
CA 41.1556 -8.99757 74.1941
CA 14.4386 -2.98321 73.1085
CA 50.5244 -9.6762 66.4742
CA 8.54478 -8.5217 42.2729
CA 24.6949 -27.4349 64.1519
CA 24.6375 -17.6741 14.0052
CA 31.3283 -27.3931 72.3021
CA 20.1799 6.76872 77.389
CA 28.3994 -11.6023 54.4486
CA 5.07433 -26.6875 60.5514
CA 48.9647 -12.092 75.4727
CA 36.1493 -38.5725 65.3539
CA 22.0261 -7.93446 42.6414
CA 27.7113 -11.4265 40.3113
CA 31.8252 -31.4074 77.0205
CA 15.8128 -9.27571 56.0197
CA 19.3643 -25.0385 52.4087
CA -10.476 -3.96962 38.3147
CA -3.67718 -39.1744 64.4611
CA 13.2826 -5.55425 17.7035
CA 11.173 -7.88879 41.6423
CA 37.8287 -29.3782 57.6788
CA -6.50379 -3.66589 37.714
CA 40.485 7.63442 51.4325
CA 10.4369 -19.5445 20.5638
CA 37.7487 -19.8547 58.4944
CA 17.489 5.3011 77.8829
CA 39.8741 -15.21 53.5856
CA 39.4488 -10.2287 68.6272
CA 29.6508 -36.3723 50.4135
CA 18.6838 -10.5163 56.1362
CA 14.8685 -25.7557 43.7919
CA 35.5326 -8.95188 68.4227
CA 30.8977 -14.9038 60.6865
CA 52.3556 -14.528 69.0731
CA -0.077873 -10.9809 51.0928
CA 5.67224 -18.858 74.7663
CA 22.2171 -36.4192 46.577
CA 42.044 -18.9177 66.4366
CA 45.5778 -15.1686 60.1412
CA 11.551 -25.019 55.2582
CA 35.2067 -4.34735 58.7734
CA 28.4703 -10.9407 59.2714
CA 22.4431 -21.0958 68.7925
CA 12.5955 -5.15494 78.2403
CA 16.6921 4.85508 73.8597
CA 8.64125 -13.5684 54.4017
CA 17.5096 -11.4728 30.7224
CA 11.8175 -23.6257 43.9866
CA 1.15099 -27.0438 47.2249
CA 25.6291 -32.3709 45.99
CA 19.9102 -32.0895 50.7662
CA 17.3671 -0.828732 65.1911
CA 44.1381 -19.3135 66.2469
CA 11.0634 -6.18895 24.6288
CA 13.4665 -22.1403 65.8903
CA 3.64858 -26.8326 52.1092
CA 19.3136 -35.9581 54.6396
CA 9.50711 -21.1981 19.4627
CA 2.70217 -16.6893 57.8678
CA 3.34421 -16.0067 66.8019
CA 25.1375 -6.27355 74.3526
CA 32.7938 -32.4304 68.2673
CA 20.7952 -16.6177 39.269
CA 39.332 -28.0469 60.364
CA 38.3547 -25.1785 58.0431
CA 9.31631 -20.56 74.0398
CA 39.4134 -12.88 55.1238
CA 14.0857 -41.3154 56.9515
CA 33.9716 -46.4133 42.8035
CA 28.3611 -42.9188 49.2682
CA 24.2382 1.59652 46.9498
CA -2.89958 -8.2835 46.6956
CA 44.8487 -10.2515 65.4955
CA 0.78359 -13.899 55.4879
CA 5.66613 -33.4326 48.2889
CA 43.6763 -24.5513 60.4425
CA 14.1755 -23.3192 52.6593
CA 33.2209 -25.9388 59.5887
CA 37.3692 8.78417 48.6253
CA 15.9414 1.14071 82.1287
CA -6.48971 -43.319 75.0864
CA 5.79111 -17.7908 73.1498
CA 12.3389 -1.87402 21.7354
CA 21.4731 -4.63124 86.1698
CA 19.489 -3.21424 62.1488
CA -4.58479 -33.0853 53.2448
CA 15.92 -16.3726 18.5111
CA -0.938639 -38.8686 64.0672
CA 43.0433 -36.5717 53.9325
CA 32.9312 -24.1627 69.0969
CA 29.5524 2.54116 48.8359
CA 36.5822 -36.8922 56.4768
CA -10.4731 -18.9202 59.2612
CA 21.6709 -13.7334 18.2056
CA 18.2736 -13.4992 16.6174
CA 24.3365 -9.49346 71.3209
CA 10.6372 -24.9876 63.8038
CA 10.8601 -32.6769 48.9995
CA 9.78647 -13.902 51.9247
CA 19.7339 3.062 79.7977
CA 5.03119 -23.4103 19.66
CA 40.279 -15.8163 62.9141
CA 40.9842 -15.4769 51.8332
CA 9.13305 -19.5823 58.4029
CA 14.7594 -21.055 54.4449
CA 9.74364 -6.94501 67.6017
CA 15.3064 -12.7696 26.385
CA -10.3921 -13.6998 51.3329
CA 1.68635 -10.9348 63.633
CA 13.2519 -18.7856 20.2166
CA 34.269 -6.88332 67.6904
CA 19.5929 -11.9254 42.3127
CA 49.206 -10.0297 69.9089
CA 18.0013 -9.55198 52.8374
CA 11.4624 -34.9259 47.9269
CA 21.7974 -40.5701 55.0397
CA 11.7192 -36.7796 38.4695
CA 13.9392 -21.0844 76.1781
CA 11.3226 -6.9894 21.664
CA 26.4347 -23.7504 68.7164
CA 10.1646 -34.8374 38.5243
CA -0.280736 -13.1177 43.9058
CA -1.38666 -32.2385 49.667
CA 19.4972 4.65546 76.9147
CA 16.3852 -8.916 46.7845
CA 19.7365 -4.3343 75.678
CA 7.79337 -21.7057 40.3249
CA -4.49183 -43.9487 76.4087
CA 30.1365 -20.5368 41.1064
CA -3.0341 -35.5013 60.922
CA -4.27812 -47.5691 68.2428
CA 13.3267 -2.69131 51.3568
CA 5.67684 -14.4032 77.8339
CA 20.7429 -9.99409 64.0001
CA -3.33033 -4.48783 41.0897
CA 17.1742 -1.72638 80.9974
CA 47.9165 -18.1231 63.7921
CA 4.98695 -14.8471 54.3317
CA -5.20034 -4.15164 43.6964
CA 28.1496 -38.4714 51.1935
CA 6.75344 -13.825 75.5507
CA -8.01789 -46.8808 69.9863
CA 34.5111 -39.2506 47.4244
CA 14.2831 -2.65865 60.1074
CA 34.606 -15.8908 67.5449
CA 1.42164 -19.6195 67.7301
CA 9.32507 -8.32369 44.0716
CA 2.54728 -13.6715 60.3484
CA 19.3525 -29.1362 40.4166
CA 7.34844 -20.1978 73.241
CA 33.1462 -17.7602 41.0777
CA -0.365322 -25.0678 48.9027
CA 40.9082 -14.3585 64.1367
CA 10.7844 -1.88569 48.6928
CA 5.13116 -27.1121 62.6898
CA 12.9539 -32.3464 56.8655
CA 28.5837 -39.2545 41.5719
CA -6.32194 -9.94494 50.9291
CA -18.606 -12.2255 50.6649
CA 23.9753 -38.0311 53.9552
CA 19.1023 -39.4364 43.9855
CA 39.4252 -24.3957 56.6537
CA 4.65273 -26.1766 44.3935
CA 17.27 -30.027 43.7663
CA 30.4891 -21.6491 54.3859
CA 17.5602 -24.2989 73.7441
CA 20.5927 -6.75353 53.9389
CA 19.442 -1.86773 50.4048
CA -5.12876 -43.0452 73.1715
CA 10.8676 -12.6326 53.1522
CA 10.8334 -4.33171 19.3129
CA 26.6827 -19.8711 68.8907
CA 31.069 -39.0516 56.9008
CA 22.1854 -12.1231 59.4409
CA 13.3543 3.16391 75.6432
CA 26.5596 -23.8866 71.5145
CA 12.3876 -21.6959 23.606
CA 32.9832 -29.9425 76.1551
CA 14.0495 -7.80666 15.9919
CA 28.8065 -23.4494 70.3039
CA 21.4438 -8.88096 74.8591
CA 25.4999 -31.8484 69.0035
CA 1.30466 -39.4933 62.7045
CA 15.7353 -1.03819 91.1798
CA 21.113 -1.94592 45.9971
CA 30.5413 -21.167 50.5764
CA -15.0662 -11.9844 53.289
CA 19.4286 -23.2865 56.2449
CA 25.8846 -10.8153 37.6074
CA 16.2082 -1.38744 76.4805
CA 4.95827 -24.643 47.3454
CA 8.08324 -26.4365 60.7608
CA 36.3187 5.64963 53.4748
CA 39.5514 -17.3048 56.7634
CA 14.9353 -37.6975 48.1852
CA 9.4857 -12.5051 50.4168
CA 13.0498 -10.759 19.8888
CA 30.5863 -18.7178 73.2851
CA 25.9622 -14.1959 17.5111
CA 7.72244 -21.2956 45.9226
CA 47.2575 -26.8104 57.2841
CA -9.16526 -12.3015 51.6224
CA 34.1949 -40.6911 56.6645
CA -1.14179 -31.0665 42.7913
CA 13.4339 -2.3487 19.2923
CA 6.96342 -22.0032 63.7606
CA 24.6522 -21.676 44.9606
CA 48.4091 -14.8727 73.778
CA 7.45472 -18.8182 51.7526
CA 8.40754 -16.9104 60.7694
CA 7.20797 -18.7614 61.8741
CA 39.7946 -38.4576 58.209
CA 20.3341 -25.1208 54.7599
CA 31.2059 -17.369 40.2586
CA 17.0126 -23.5905 68.6156
CA 15.2201 -29.828 44.3054
CA 27.9688 -11.6208 62.8534
CA 12.5177 -21.7643 56.3198
CA 20.0914 -31.3066 42.8968
CA 43.5273 -12.2987 75.2761
CA 30.9314 -25.4571 51.1814
CA 29.4593 -39.9914 52.6726
CA 13.378 -11.1964 53.5729
CA 17.7202 -5.94876 72.5329
CA 33.8045 -27.6116 64.9197
CA 21.1746 -17.2858 35.6818
CA 15.5523 -40.4214 59.8424
CA 42.7555 -14.7757 62.4011
CA 19.3035 -5.31298 35.2434
CA 33.0922 -22.5956 55.8712
CA 4.92988 -21.3708 20.2884
CA 39.723 -9.89712 70.8933
CA 26.4708 -27.5001 69.9715
CA 22.7635 -25.4656 61.5721
CA -16.2947 -14.0091 54.694
CA 30.5807 -23.3485 56.1746
CA 34.5657 -22.1032 72.4651
CA 36.1115 -12.3516 53.9673
CA -0.243039 -8.97174 44.8892
CA 33.5954 -16.2616 65.4937
CA 23.7064 -12.6613 76.7285
CA 16.8118 1.59916 87.1161
CA 23.4077 -0.950903 46.691
CA 28.4679 8.69782 48.348
CA 31.2593 -30.7589 74.8288
CA 11.3669 -22.1325 35.2677
CA 19.1949 -45.6481 54.5264
CA 2.62313 -16.1861 45.6141
CA -0.576262 -35.3955 55.8854
CA 15.63 -14.9708 30.4101
CA 48.7393 -10.226 73.5659
CA 19.133 -14.8543 23.8201
CA 17.1691 -4.61646 51.7654
CA 22.2918 -4.39398 53.2914
CA 25.348 -18.3474 38.373
CA 17.3819 -14.7162 14.0847
CA 26.2419 -7.05259 67.1859
CA 44.8804 -16.6974 59.3379
CA 6.83415 -30.7677 38.7609
CA 10.2134 -16.0415 29.3377
CA 21.5115 -24.4828 68.4053
CA 18.1482 -7.31367 41.96
CA 20.8431 -26.9588 51.9568
CA 42.887 -19.4945 64.935
CA 33.1728 -40.6851 46.9621
CA 7.37825 -32.9096 46.3721
CA 21.7445 -25.7423 38.675
CA 19.1699 -38.4244 58.3545
CA 37.5701 -14.4927 51.6934
CA 10.0877 -14.3799 17.7237
CA 17.6042 -14.5485 11.7011
CA 45.072 -36.9413 56.1261
CA 15.5465 -21.7799 70.1698
CA 32.4674 6.90506 52.4204
CA 37.3067 -29.1434 65.0182
CA 35.8626 -29.2511 76.1884
CA 33.2645 -13.8776 38.9123
CA 23.7939 -3.75103 50.2812
CA 27.8661 -10.9198 74.4772
CA 22.6028 -5.58648 45.9895
CA 10.9574 -44.0056 53.7807
CA 21.1531 4.14385 94.8135
CA 15.7529 -5.86486 30.7228
CA 5.54287 -17.7375 70.0524
CA 5.27002 -15.0273 70.57
CA 35.3939 -19.429 73.0203
CA 13.6856 -19.0196 45.1993
CA 30.0874 -31.9457 67.6164
CA 25.8968 -9.73583 44.4898
CA 1.68342 -27.7122 65.0296
CA -1.81118 -39.1323 65.7654
CA 9.521 -31.9591 54.2066
CA 10.1567 -6.09372 19.0223
CA 26.6373 -21.5095 39.387
CA 32.2481 -44.9378 47.2853
CA 14.9876 0.865407 15.8272
CA 9.13121 -32.9319 39.7846
CA 5.00916 -31.3323 43.1975
CA 21.3287 2.26717 76.0742
CA 42.94 -18.3062 72.6113
CA 19.3747 -3.12992 67.7892
CA 28.3165 -20.6669 43.0426
CA 8.95874 -11.174 52.1424
CA 18.2961 -27.7034 47.1079
CA 12.701 -29.4831 46.6385
CA 25.1392 -25.5014 53.0882
CA 14.1961 -27.9104 53.8555
CA 44.1348 -16.6788 67.7034
CA -1.7749 -37.552 59.7562
CA 14.3235 -17.3858 18.6977
CA 15.8352 4.21135 69.3213
CA -5.17671 -8.60535 49.1043
CA 13.7531 -5.21838 69.1417
CA 10.6544 -23.2629 38.7924
CA 19.7145 -19.0117 44.4107
CA 21.243 -9.2698 77.1936
CA 38.5667 8.01442 50.9936
CA 27.83 -2.78405 41.1978
CA 37.8027 -11.1533 69.912
CA 21.7693 -3.14774 39.0219
CA 24.7225 -23.2969 68.3399
CA 16.7587 -8.36963 53.5256
CA 23.423 0.836568 79.3833
CA 29.0679 -22.7938 58.1676
CA 23.7582 -8.13197 64.2851
CA 3.85395 -24.4129 49.2427
CA 40.8749 -16.8786 68.1044
CA 6.53722 5.13192 67.8652
CA 23.7544 -41.237 55.1654
CA 36.7724 -14.2383 58.5376
CA 36.3514 -26.9944 75.3217
