489

CA 1.01005 -23.482 19.6308
CA 17.5925 -10.1641 16.8686
CA 11.0782 -27.8828 58.6437
CA -4.48133 -5.39197 45.3128
CA 19.5183 -36.865 47.9198
CA 17.0456 -19.4346 18.5678
CA 24.2028 -7.45673 30.2969
CA 23.7792 -19.4132 40.7495
CA 21.4333 -7.4249 76.8366
CA 16.996 -24.62 70.5033
CA -3.42221 -37.8123 67.8305
CA 14.2993 -6.68275 56.2342
CA 34.9848 -5.37183 64.2787
CA 34.6191 -18.8708 56.6687
CA 10.4834 -21.6701 26.3074
CA 9.53094 -6.52732 42.0576
CA 11.7316 -21.0604 52.1395
CA 31.8413 -9.14066 62.5285
CA 14.6943 -10.9701 30.6921
CA 23.347 5.21515 47.9716
CA 10.8076 -7.30465 28.3023
CA 17.0402 -19.7656 64.3565
CA 22.6734 -35.9587 42.2102
CA 24.0422 -6.50735 59.8953
CA 19.0626 -2.30566 69.6082
CA 12.0577 -23.5019 45.9196
CA -5.92511 -13.6641 46.4797
CA 13.3488 1.19293 54.4738
CA 32.8622 -3.66642 47.7074
CA -0.725863 -5.42561 40.8303
CA 15.9049 -1.59759 60.3458
CA 21.8911 -47.3322 48.3978
CA 11.7212 -7.79155 45.7217
CA 31.261 -15.8848 60.842
CA -0.623883 -22.8707 17.7502
CA 33.8245 -40.3781 46.7784
CA 25.851 -6.23437 34.272
CA 16.4672 -23.753 68.9204
CA 27.2411 -3.36239 45.4197
CA 23.61 -0.847665 44.3386
CA 27.8524 5.55597 47.6233
CA 25.2137 0.938439 50.2248
CA 8.95679 -4.09218 19.1484
CA 13.3787 -16.1815 58.3955
CA 11.4234 0.221806 78.8043
CA 6.23682 -41.0529 41.9291
CA -5.98763 -35.8099 56.5064
CA 45.7244 -12.3287 50.3807
CA 30.4 -33.1371 57.9401
CA 33.8183 -28.2881 46.7514
CA -3.76524 -30.6883 55.1948
CA 7.82932 6.78874 7.32929
CA 13.5242 -35.4633 51.8116
CA 31.7839 -46.1316 44.8492
CA 6.12509 -1.82817 56.2891
CA 3.61179 -30.8709 39.2801
CA 23.7043 -11.9798 60.6588
CA 16.5479 -2.24024 48.6629
CA 11.671 -14.9044 63.2012
CA -5.19079 -39.8416 72.1063
CA 15.7887 -27.9654 45.7554
CA 48.528 -25.3121 65.1351
CA 51.1511 -13.0241 58.1736
CA 31.7695 -30.5406 54.339
CA 12.7322 -15.2409 35.2848
CA 15.009 -3.61098 52.5059
CA 28.3112 -6.46281 46.4329
CA 28.6408 3.91211 71.7431
CA 27.7073 -15.5253 60.6524
CA -9.06656 -12.5415 52.9594
CA 20.5561 -31.4009 39.889
CA 4.16282 -20.2464 43.1053
CA 0.873664 -43.3334 73.3019
CA 5.4776 -36.9357 51.0878
CA 7.5402 -20.4033 73.1905
CA 46.0537 -8.86559 78.6968
CA 19.5019 -8.67058 39.0551
CA 5.31654 -18.938 60.6778
CA 33.9611 -3.38194 46.096
CA 37.2147 -20.7222 67.8496
CA 5.71249 -6.2618 53.923
CA 14.6786 -16.3792 54.6306
CA 40.9179 -37.8402 55.3505
CA 32.9446 -26.9474 66.594
CA 22.4477 -32.4332 53.405
CA 3.44042 -14.929 66.48
CA 2.54967 -43.0169 66.0329
CA -1.93308 -34.1594 57.2545
CA 41.1668 -17.8664 56.4496
CA 21.7034 -0.185674 74.2846
CA 16.7374 -0.710244 68.4896
CA 45.7116 -22.8563 75.8231
CA 30.8102 -11.6893 63.0407
CA 37.0609 -42.5929 63.8447
CA 23.2429 3.89657 52.4547
CA 31.0963 -35.9841 74.7765
CA 18.1208 -9.44145 41.6023
CA 41.6133 -8.40055 52.5451
CA 15.4896 -2.64084 68.4942
CA -4.92338 -32.9513 55.3973
CA 15.3079 -6.68886 32.1856
CA 21.8451 -19.6241 41.9398
CA 33.1074 -35.818 56.7149
CA 17.447 0.493236 79.018
CA 0.924117 -20.3645 55.8541
CA 11.3601 4.73595 9.8746
CA 31.0234 -16.3732 62.7111
CA 6.68111 -31.9149 42.9001
CA -13.9655 -10.1993 49.3626
CA 2.09424 -11.6752 58.5334
CA 5.01026 -26.6073 53.6049
CA 34.0324 -7.05575 63.1794
CA 39.1468 -13.387 69.7633
CA 14.8074 -36.2365 43.8385
CA 14.7029 -43.5375 52.9259
CA 36.0454 -45.1396 60.2472
CA 49.6738 -22.2018 57.4665
CA 25.212 -10.3891 35.3341
CA 30.2454 -17.7905 60.257
CA 13.4958 -3.285 54.794
CA 8.20169 -27.5394 35.6343
CA 37.7105 -45.8972 59.2371
CA 31.6726 8.30673 48.4446
CA 49.7613 -8.99622 76.4421
CA 43.4246 -12.1624 69.2599
CA 16.3586 -4.48169 82.1718
CA -0.408671 -15.8668 55.7986
CA 31.4481 -36.0371 69.5494
CA 11.0089 -31.0474 42.8431
CA 20.0269 -20.959 64.3359
CA 37.913 -28.096 79.6099
CA 10.3549 -34.7502 46.7521
CA 18.9275 -5.57744 50.8221
CA 26.997 -13.9874 61.3457
CA 25.9766 -30.3967 53.0504
CA 11.3344 -11.6879 48.8645
CA -7.46447 -33.0834 56.7275
CA 25.118 -2.43206 44.9028
CA 6.50036 -29.6851 48.0874
CA 19.0487 -6.16854 78.8814
CA 19.1547 -43.1306 52.3333
CA 17.3484 -9.53163 74.7144
CA 10.5959 -15.0537 60.6736
CA 7.20381 -6.76055 44.0701
CA 32.497 -22.2551 66.8219
CA 26.9213 -5.92776 44.3405
CA 2.15675 -9.79869 43.8086
CA 32.9345 -29.4769 42.5904
CA 34.1221 -36.0307 45.2183
CA 37.2999 -24.8584 71.5342
CA 10.7301 -19.0684 26.1634
CA 22.8365 -3.04301 53.6454
CA 25.2889 -11.9993 41.0374
CA 45.5142 -21.4951 74.2206
CA 21.5484 -33.3885 48.65
CA -5.02193 -16.8633 51.7852
CA 17.0803 -5.70038 56.6505
CA -9.51478 -32.5212 57.3736
CA -1.25359 -37.9292 71.4025
CA 12.1615 -24.8326 62.9139
CA 8.46558 -0.678287 75.1428
CA 23.2446 -6.54514 44.5657
CA 33.6234 -12.0333 65.1772
CA 11.4317 -21.2474 57.4494
CA 15.1797 -12.7781 49.3952
CA 8.34671 -34.738 49.715
CA 1.64851 -19.946 59.7907
CA -5.00696 -14.3666 55.455
CA 16.6663 -9.15191 35.3303
CA -0.540237 -18.1751 54.3431
CA 26.3955 -21.2028 42.216
CA 43.8567 -17.4945 72.1273
CA 20.9186 -4.18534 35.0918
CA 43.6176 -22.3892 66.4542
CA 46.897 -18.5375 64.4769
CA 27.6743 5.01956 73.9208
CA 39.5801 -17.4969 61.6147
CA 17.7418 -12.8869 14.9118
CA 45.1259 -10.9542 61.8032
CA 22.6102 7.88472 51.5844
CA 40.485 7.63442 51.4325
CA 10.4369 -19.5445 20.5638
CA 22.5856 -22.2285 40.6456
CA 20.6553 2.73948 49.3227
CA 17.8726 -2.81739 63.2511
CA 40.787 -19.3944 61.6121
CA 19.6645 -6.31358 73.9928
CA 15.8387 -34.4384 50.02
CA 42.8701 -13.2357 60.4619
CA 8.43961 -26.9253 47.3513
CA 31.6715 -11.5689 57.9161
CA 7.75141 -6.02109 22.3935
CA 8.3234 -24.0956 36.4932
CA 9.09749 -23.3167 42.8253
CA 29.6773 -28.6619 43.2125
CA 9.21811 -21.8145 52.491
CA 42.3019 -18.9221 75.9631
CA 11.551 -25.019 55.2582
CA 28.0317 -8.08303 42.2285
CA 5.32412 3.29502 47.8716
CA 28.9355 -14.1629 75.911
CA 42.2157 -23.5991 73.7815
CA 50.5832 -9.46232 73.5014
CA 12.4044 -16.7493 36.2547
CA 3.33073 -22.9481 54.0277
CA 11.8175 -23.6257 43.9866
CA 14.2609 -12.9273 33.6651
CA 35.2031 -15.8739 53.8381
CA 31.7016 -1.65621 43.9107
CA 16.9853 -30.5227 53.6281
CA 40.8907 -32.5798 56.9054
CA 3.93246 -10.2688 66.8018
CA 11.7931 -13.6289 31.5064
CA 9.67586 -5.13976 49.3314
CA 14.3287 -26.1005 63.2955
CA 9.50711 -21.1981 19.4627
CA 10.1821 -23.8667 52.3119
CA 39.2049 -35.3583 55.3826
CA 23.3822 -22.5958 57.3217
CA 19.4767 -40.6378 51.3126
CA 13.8478 -27.0805 46.2896
CA 42.0289 -11.2214 62.1432
CA 1.67997 -41.2377 64.1586
CA 3.34798 -14.1041 60.8334
CA 34.459 -16.4339 57.5363
CA 23.8406 -4.87509 48.0751
CA 10.381 -22.5324 24.5751
CA 32.8183 -33.1507 56.8979
CA 25.3466 -3.06908 42.8409
CA 10.9377 -23.1818 60.3607
CA 18.063 -23.9052 62.3731
CA 22.6676 -31.0805 49.796
CA 42.3796 -28.0331 66.481
CA -5.96395 -13.1409 53.9847
CA 29.5286 -30.9779 58.7459
CA 31.7951 -18.5554 57.7946
CA 37.3692 8.78417 48.6253
CA 29.9617 -42.4079 57.4547
CA 1.12907 -22.0834 61.6296
CA 5.79111 -17.7908 73.1498
CA 13.6604 -23.9978 43.1818
CA 7.083 -37.2141 41.4972
CA 23.6711 -0.634045 52.0242
CA -4.58479 -33.0853 53.2448
CA 15.92 -16.3726 18.5111
CA -0.938639 -38.8686 64.0672
CA 43.0433 -36.5717 53.9325
CA 10.6476 -7.74123 63.6323
CA 25.5629 -10.9466 76.957
CA 25.283 -24.9686 59.4968
CA 19.0835 -5.74936 45.7101
CA 21.6709 -13.7334 18.2056
CA 18.2736 -13.4992 16.6174
CA 33.1539 -26.2801 75.7216
CA 13.7096 -15.1746 44.766
CA 39.2139 -19.3199 75.1808
CA 27.4547 -37.3663 40.315
CA 43.9396 -14.2691 51.6986
CA 5.03119 -23.4103 19.66
CA 29.7629 -31.4693 46.7945
CA 35.2228 -42.3704 50.0583
CA 41.5323 -15.6997 49.9511
CA 9.57734 -33.1728 48.7442
CA 33.2573 -20.975 70.6609
CA 41.7759 -25.3394 65.1443
CA 1.62741 -14.7014 47.0397
CA 20.0341 -9.58478 31.2002
CA 30.3524 -24.4924 67.8264
CA 9.19626 -15.774 47.9186
CA 16.4753 -21.5332 70.6681
CA 23.2967 -27.7015 63.3588
CA 4.02901 -6.18055 41.7698
CA 27.4904 -2.83582 43.0539
CA 8.77926 -26.8632 54.754
CA 29.8094 -6.62833 43.5369
CA 10.2792 -0.740586 45.911
CA 9.65465 -11.6725 46.2102
CA 19.4229 -20.5857 68.8393
CA 39.2954 -23.0133 62.6412
CA 26.2246 -12.2736 69.976
CA 36.7075 -35.2592 55.1574
CA 39.8826 -8.68834 61.3986
CA 3.93035 -18.5843 44.5588
CA 25.2547 3.21005 72.6428
CA 44.462 -7.97906 65.3604
CA 28.2453 -42.1274 55.4624
CA 4.2728 -20.5098 40.4289
CA 29.007 -21.4442 42.7593
CA 11.4262 -10.2914 16.3895
CA 13.3267 -2.69131 51.3568
CA 21.2062 -13.6136 62.3744
CA -5.40118 -28.8234 50.7728
CA 16.2946 -3.72828 59.9012
CA 31.197 -7.86336 69.6068
CA 24.8004 -4.27777 44.7001
CA 47.5971 -12.199 69.3761
CA 10.3723 -16.3074 23.7859
CA 36.2572 -12.1366 66.7743
CA 25.7523 -19.3644 60.9799
CA 21.8626 -24.4599 59.4328
CA 20.1319 -24.1968 58.2767
CA 34.3024 -9.41541 53.1596
CA 8.84364 2.57022 44.3842
CA 21.7197 -7.16828 34.7716
CA 26.2286 -42.3575 56.826
CA 42.0285 -16.9862 63.1648
CA 24.7675 -22.3048 42.1251
CA 13.4385 -5.41795 84.4243
CA 3.30365 -13.9026 70.1266
CA 22.0221 -11.8602 40.3576
CA 0.0899247 -28.408 47.086
CA 10.7844 -1.88569 48.6928
CA 31.6093 -19.3577 72.7115
CA 13.1122 -7.6315 41.4456
CA 6.34533 -23.4706 59.5513
CA 14.3326 -20.7952 19.2549
CA 10.619 -24.4752 40.7032
CA 12.9512 -22.1855 62.9659
CA 31.0809 -13.16 64.0685
CA 36.0488 -40.5905 63.2762
CA 40.8 -17.1622 60.1463
CA 28.6268 -10.627 77.6254
CA 25.4153 -36.6506 38.4688
CA -13.379 -14.1481 53.7472
CA 40.8272 -28.2999 83.2905
CA 26.9227 -15.1917 72.3644
CA 0.704138 -24.0419 59.0385
CA 36.3234 -24.2277 76.4541
CA 10.8334 -4.33171 19.3129
CA 39.0197 -32.3669 53.2747
CA 24.4845 -46.9275 48.7976
CA 31.9396 -29.0222 64.5786
CA 20.8025 -7.58266 37.8278
CA 19.0285 -2.6253 79.2505
CA 17.694 0.645427 74.3541
CA -10.6435 -13.6111 48.5962
CA 49.9718 -19.2586 71.4967
CA 12.8279 -6.47631 22.2919
CA 20.965 -28.5588 56.1238
CA 25.4999 -31.8484 69.0035
CA 37.7584 -11.1969 68.3067
CA 9.14587 1.71795 7.09208
CA 48.6019 -19.6046 66.2989
CA 18.5219 -20.7203 19.6815
CA 39.7861 -29.6529 58.507
CA 37.8171 -7.24642 48.8338
CA 6.30583 -24.5415 52.7332
CA 11.7305 -10.3929 68.3817
CA 8.20048 -21.3423 41.8911
CA 26.6867 -4.31414 47.4126
CA 29.9213 -42.4096 51.6687
CA 38.3686 -27.782 59.8312
CA 19.0701 1.72075 78.0033
CA 9.4857 -12.5051 50.4168
CA 9.14617 0.292252 56.1861
CA 29.342 -21.0083 66.6979
CA 25.9622 -14.1959 17.5111
CA 17.8779 -15.8109 43.3488
CA 43.9161 -9.8614 66.0426
CA 26.9785 -32.685 48.7428
CA 46.3002 -17.7738 54.157
CA 34.5903 -7.28289 66.5295
CA 12.4186 -37.3688 49.5711
CA 21.806 -24.995 40.4794
CA 18.5654 -38.2397 45.0414
CA 38.3326 -10.0178 51.5864
CA 10.428 -14.0548 58.9544
CA 23.5165 -44.5002 50.0839
CA 45.1489 -9.05294 67.1152
CA 6.00018 -36.3626 38.2392
CA 21.1016 -10.4778 43.4046
CA 37.6352 -15.174 55.7394
CA 22.1517 -25.5244 43.4438
CA 14.9414 -10.9398 20.6945
CA 15.4111 2.63864 17.2114
CA 22.4703 -7.61428 22.3935
CA 12.899 -10.6081 30.994
CA 24.7089 -36.6297 61.4837
CA 16.7444 -27.3117 71.6062
CA 3.49243 -10.2904 62.6782
CA 47.276 -23.9298 60.3917
CA 17.7202 -5.94876 72.5329
CA 19.6945 -26.699 54.678
CA 4.72852 -11.9223 57.1218
CA -2.46154 -27.6344 51.387
CA 16.1341 -8.05843 66.2555
CA 7.12057 -20.0571 23.8021
CA 3.29308 -25.2316 47.9109
CA 45.1437 -16.3503 67.6231
CA 29.5042 -2.10682 50.3795
CA 26.769 -32.766 71.9664
CA 39.3976 -15.5457 62.4882
CA -16.2947 -14.0091 54.694
CA 30.5807 -23.3485 56.1746
CA 6.94025 -16.811 47.3578
CA 25.3976 -33.582 47.5528
CA 16.3979 -17.276 20.3909
CA 23.3599 -22.1341 60.8364
CA 20.8009 -42.7173 53.4716
CA 42.5515 -21.4591 75.9846
CA 1.80768 -13.2424 66.7956
CA 22.2633 0.994855 44.0426
CA 10.5105 1.49306 12.9703
CA 12.2683 -17.3208 61.648
CA 26.1689 -36.7223 47.2177
CA 2.62313 -16.1861 45.6141
CA 9.61259 -8.00365 84.7685
CA 13.6624 -29.8105 42.5051
CA 42.6056 -9.81234 59.0753
CA 26.0807 -23.4254 44.5492
CA 3.60504 -13.9845 56.1898
CA 29.4882 -26.6138 43.7193
CA 49.962 -15.6244 66.2065
CA 24.0778 -22.6645 39.4295
CA 16.3154 -28.3762 68.6123
CA 19.6094 1.90663 16.0361
CA 26.7332 -34.1872 52.7912
CA 10.2134 -16.0415 29.3377
CA 24.2747 -33.4378 57.5897
CA 47.209 -15.5343 71.5876
CA -1.22654 -34.9451 59.8622
CA 18.7462 -5.29908 66.063
CA 8.15509 -20.3787 28.786
CA 20.8142 -23.6843 60.7395
CA -2.49498 -9.53821 55.6585
CA 29.7954 -33.765 65.6251
CA 37.8546 -38.535 53.153
CA 20.7821 -8.86544 47.6216
CA 5.15174 -25.347 46.3605
CA 15.6594 -20.3212 66.746
CA -7.61997 -8.31201 45.6821
CA 29.3838 -7.21432 65.2683
CA 37.3067 -29.1434 65.0182
CA 15.5642 -7.38125 74.1189
CA 37.0331 -21.1997 76.2312
CA 18.7884 -6.09244 55.6153
CA 20.5772 -41.4307 48.5558
CA -9.2228 -7.38574 50.3356
CA -1.50756 -41.9636 72.6275
CA 46.0465 -18.591 56.2617
CA 9.70955 -1.29534 50.5947
CA 31.8109 -43.3625 57.6531
CA 23.9066 -46.1205 53.7309
CA 26.9723 -16.2094 63.2377
CA 36.455 -34.3182 52.7651
CA 18.511 -8.94564 22.0866
CA 30.1353 -27.3329 56.7086
CA 12.1992 -6.81615 68.9941
CA 0.176819 -9.55388 46.1465
CA 17.3152 1.84187 72.4043
CA 15.4023 -3.75268 58.1233
CA 45.8824 -33.3164 52.543
CA 32.2481 -44.9378 47.2853
CA 46.7973 -14.1896 56.5864
CA 3.21965 -17.9727 40.1924
CA 18.9095 -49.7696 46.6225
CA 30.3019 -28.1008 52.839
CA 8.72333 -9.13213 55.745
CA 30.7089 -29.7885 40.4906
CA 37.9943 -23.4171 78.4072
CA 39.971 -23.393 75.0168
CA 42.8207 -34.2485 54.2477
CA 10.7994 -18.7968 53.0215
CA 18.9259 -6.94382 48.346
CA 17.7017 -5.35924 68.7136
CA 17.6885 -17.1741 16.8968
CA 44.0485 -11.4823 53.5954
CA 31.4613 4.58666 73.3272
CA 15.8352 4.21135 69.3213
CA 30.567 -40.2039 53.5933
CA 15.2481 0.293118 80.6976
CA 40.0151 -5.58084 49.6293
CA -4.09897 -35.4053 56.7579
CA 24.3599 -15.4378 18.2778
CA 34.1304 -36.1746 42.7685
CA 40.1154 -12.9787 52.4034
CA 41.7357 8.72339 54.9158
CA 32.6442 -32.7092 61.075
CA 6.13857 -26.4073 50.6184
CA 26.8138 -31.6812 63.5217
CA 9.09124 -16.4206 68.814
CA 12.1227 0.967143 17.4187
CA 0.35204 -23.4914 66.1613
CA -6.96155 -14.0944 57.4132
CA 47.0894 -9.34323 53.2665
CA 41.8191 5.91499 54.6398
CA 9.26122 -37.7649 50.4557
CA 18.0541 -18.2801 65.0042
CA 36.3514 -26.9944 75.3217
