489

CA 1.01005 -23.482 19.6308
CA 17.5925 -10.1641 16.8686
CA 40.9545 -39.4093 58.956
CA 17.613 -2.55031 67.3798
CA 19.5183 -36.865 47.9198
CA 17.0456 -19.4346 18.5678
CA 47.3121 -20.1808 63.6335
CA 33.1832 -12.4788 69.276
CA 21.4333 -7.4249 76.8366
CA 17.0219 -3.74266 56.0157
CA 44.0389 7.4105 48.6514
CA 25.0613 -48.5991 54.8009
CA 34.2151 -9.14587 57.6755
CA 34.6191 -18.8708 56.6687
CA 18.9522 -17.2051 74.6763
CA 9.53094 -6.52732 42.0576
CA 35.058 -1.04723 46.4717
CA 21.5604 -7.00378 31.9463
CA 23.9209 -36.0553 37.2713
CA 31.7262 -2.04796 46.6077
CA 23.8602 -42.9919 51.78
CA 5.54051 -20.9728 46.3487
CA 22.6734 -35.9587 42.2102
CA 24.0422 -6.50735 59.8953
CA 19.0626 -2.30566 69.6082
CA 35.6056 -21.2954 68.7936
CA -5.92511 -13.6641 46.4797
CA 16.4394 -24.6449 56.1273
CA 28.949 -2.1854 48.9935
CA 23.0607 -17.0076 44.4969
CA 21.6829 -3.35896 65.463
CA 29.9721 -27.945 75.6376
CA 24.5366 3.68284 50.8185
CA 31.261 -15.8848 60.842
CA 33.7445 -41.6248 59.6166
CA 14.1713 -6.84268 47.1431
CA -2.53704 -15.7277 43.1624
CA 30.3768 -43.4232 58.9149
CA 27.2411 -3.36239 45.4197
CA 14.3721 -9.80113 33.3435
CA 27.8524 5.55597 47.6233
CA 25.2137 0.938439 50.2248
CA 8.95679 -4.09218 19.1484
CA 13.3787 -16.1815 58.3955
CA 11.4234 0.221806 78.8043
CA -5.44765 -17.5213 52.4981
CA -5.98763 -35.8099 56.5064
CA 14.0184 -29.144 59.8302
CA 30.4 -33.1371 57.9401
CA 33.8183 -28.2881 46.7514
CA 16.5561 -5.37777 79.2881
CA 42.8707 -33.7961 80.2489
CA 13.5242 -35.4633 51.8116
CA 38.7649 -20.8059 64.8682
CA 8.93431 -39.362 45.7966
CA 48.1042 -25.428 61.4019
CA 33.3541 3.90213 47.7938
CA 0.426578 -36.5663 68.7955
CA 34.8824 -11.0178 56.018
CA 12.6807 -22.4368 49.7917
CA 2.42261 -28.2207 40.6815
CA 35.521 -2.6116 49.8919
CA 44.4778 -27.4423 82.2001
CA 11.4701 -27.6506 56.33
CA 17.5808 -14.5098 19.8718
CA -0.225371 -30.4507 42.9654
CA 12.2913 -21.0796 56.1337
CA 24.1208 -21.833 43.1442
CA 17.7984 -20.5364 72.2494
CA 16.0625 -20.2022 16.5689
CA 32.37 -27.4522 43.0195
CA 4.16282 -20.2464 43.1053
CA 8.57575 -29.0477 44.6727
CA 31.5943 -34.9667 51.0968
CA 33.5 -23.4768 68.5732
CA 46.0537 -8.86559 78.6968
CA 19.5019 -8.67058 39.0551
CA 34.5068 -48.8323 58.7995
CA 37.8166 -8.40591 53.4878
CA 37.2147 -20.7222 67.8496
CA 5.71249 -6.2618 53.923
CA 9.62778 -24.9146 25.0395
CA 40.9179 -37.8402 55.3505
CA 32.9446 -26.9474 66.594
CA 0.363186 -38.642 71.859
CA 9.56422 -9.94978 65.112
CA 9.21889 -35.5763 53.1862
CA -1.93308 -34.1594 57.2545
CA 41.1668 -17.8664 56.4496
CA 24.1285 -10.4204 66.4011
CA 40.9911 -35.3431 54.8916
CA 45.7116 -22.8563 75.8231
CA 27.4086 -28.9413 67.6554
CA 37.0609 -42.5929 63.8447
CA 26.6003 -18.2272 63.1782
CA 19.9839 -28.7666 64.0069
CA 34.3355 -20.8171 56.5404
CA 17.263 -36.9113 44.3603
CA 0.303845 -12.4659 62.1497
CA -2.88062 -41.1007 75.1193
CA 17.6384 -42.951 48.8543
CA 21.8451 -19.6241 41.9398
CA 18.1775 -41.2996 52.9857
CA 37.7827 -29.3407 52.5354
CA 0.924117 -20.3645 55.8541
CA 11.3601 4.73595 9.8746
CA 31.0234 -16.3732 62.7111
CA 6.68111 -31.9149 42.9001
CA 29.2588 -11.2243 39.4524
CA 13.6073 -16.5864 64.7762
CA 34.4107 -29.8684 56.2344
CA 15.1891 -8.60342 40.5669
CA 41.2886 -29.0454 57.0061
CA 27.2642 -2.77493 53.089
CA 26.2645 -11.5 44.8076
CA 36.0454 -45.1396 60.2472
CA 49.6738 -22.2018 57.4665
CA 25.212 -10.3891 35.3341
CA 18.0842 2.10051 66.3602
CA 13.4958 -3.285 54.794
CA 32.0764 -3.89083 45.6776
CA -8.77159 -15.499 54.323
CA 31.6726 8.30673 48.4446
CA 22.702 -11.1848 64.8921
CA 43.4246 -12.1624 69.2599
CA 26.6177 -4.09173 61.1979
CA -0.408671 -15.8668 55.7986
CA 29.735 -32.0224 76.0078
CA 11.0089 -31.0474 42.8431
CA 24.1113 -26.1917 56.9823
CA 37.913 -28.096 79.6099
CA 10.3549 -34.7502 46.7521
CA 5.10407 -10.3539 47.1471
CA 26.997 -13.9874 61.3457
CA 9.65922 -25.1747 55.5043
CA 18.2335 -31.8888 52.2422
CA 14.7678 -27.8515 55.7097
CA 12.6415 -12.9889 29.738
CA 6.50036 -29.6851 48.0874
CA 19.0487 -6.16854 78.8814
CA 19.1547 -43.1306 52.3333
CA 17.3484 -9.53163 74.7144
CA 33.8799 -21.0419 76.9702
CA 17.452 -15.3365 24.4061
CA 9.82903 -9.79719 28.4404
CA -1.57996 -19.8939 59.4692
CA 24.1101 -23.7412 62.5349
CA 32.9345 -29.4769 42.5904
CA 34.1221 -36.0307 45.2183
CA 31.358 -9.06359 72.3112
CA 19.2949 -9.20162 33.4442
CA 33.8587 -41.6834 62.9454
CA 25.2889 -11.9993 41.0374
CA 45.5142 -21.4951 74.2206
CA 21.5484 -33.3885 48.65
CA 8.8773 -21.8648 57.6089
CA 17.0803 -5.70038 56.6505
CA -11.4311 -15.9938 49.3991
CA 16.6775 -5.40881 20.8719
CA 8.15683 -24.5672 54.1319
CA 11.8761 0.89408 69.2461
CA 25.4905 -17.3775 41.2602
CA 33.6234 -12.0333 65.1772
CA 28.8582 -35.8086 48.9479
CA 26.0248 -12.7433 66.6407
CA 8.34671 -34.738 49.715
CA 1.64851 -19.946 59.7907
CA 29.8258 -22.5021 72.0029
CA 13.3304 -14.2446 57.5899
CA 23.5837 -12.371 20.768
CA 26.3955 -21.2028 42.216
CA 28.7795 -30.5682 55.5949
CA 0.377798 -34.7675 63.9671
CA 18.1677 3.3658 68.346
CA 24.8397 -30.7614 55.4736
CA 15.5202 -33.6767 51.7001
CA -4.69305 -11.4183 57.2479
CA 32.1918 -23.5429 72.7456
CA 36.2096 -26.9559 65.4136
CA 11.2327 1.64997 19.1878
CA 40.485 7.63442 51.4325
CA 31.5151 -3.77785 48.7469
CA 22.5856 -22.2285 40.6456
CA 20.6553 2.73948 49.3227
CA 13.2454 -3.33127 84.8548
CA 40.787 -19.3944 61.6121
CA 19.6645 -6.31358 73.9928
CA 43.3407 -14.8937 59.0301
CA 44.3266 6.011 50.3449
CA 8.43961 -26.9253 47.3513
CA 31.6715 -11.5689 57.9161
CA 5.16466 -28.8925 37.803
CA 17.715 -10.9157 76.0679
CA 13.6118 5.92113 69.1016
CA 29.6773 -28.6619 43.2125
CA 8.24787 -19.697 44.1385
CA 42.3019 -18.9221 75.9631
CA 27.4591 -31.4846 65.6662
CA 12.5655 -17.2476 30.1963
CA -3.17964 -14.6474 52.8129
CA 28.9355 -14.1629 75.911
CA 46.6288 -7.90884 62.7487
CA 50.5832 -9.46232 73.5014
CA 12.4044 -16.7493 36.2547
CA 39.7784 6.32957 53.0875
CA 9.06814 -6.37249 55.896
CA 46.0039 -15.59 54.0681
CA 44.3188 -21.7119 63.0308
CA 10.4966 -5.30014 67.2877
CA 16.9853 -30.5227 53.6281
CA 13.4199 3.7522 70.9878
CA 3.95872 -21.2857 45.1052
CA 31.8307 -36.9542 47.2365
CA 9.67586 -5.13976 49.3314
CA 14.3287 -26.1005 63.2955
CA 9.50711 -21.1981 19.4627
CA -5.01103 -16.4067 45.5689
CA 36.5844 -27.9717 82.5055
CA 11.1835 -14.876 43.8696
CA 33.1224 -13.6616 66.8798
CA 13.8478 -27.0805 46.2896
CA 9.07111 -14.9633 43.0551
CA 30.4215 -11.6527 63.1673
CA 36.243 -7.02122 60.7287
CA 34.459 -16.4339 57.5363
CA 11.5905 -8.42481 60.7263
CA 10.381 -22.5324 24.5751
CA 14.753 -23.1142 60.8616
CA 1.24274 -23.0192 63.5543
CA 12.2774 0.542691 53.0113
CA 18.063 -23.9052 62.3731
CA 31.5133 -30.1568 76.5781
CA 35.7486 -25.53 56.6205
CA 46.7592 -13.7207 70.0581
CA 41.2543 -12.9749 59.9826
CA 17.0356 -24.6662 54.2322
CA 37.3692 8.78417 48.6253
CA 29.9617 -42.4079 57.4547
CA 1.12907 -22.0834 61.6296
CA 5.79111 -17.7908 73.1498
CA 13.6604 -23.9978 43.1818
CA 17.3522 -13.889 74.9786
CA 23.0943 -24.8312 57.6635
CA -4.58479 -33.0853 53.2448
CA 15.92 -16.3726 18.5111
CA 13.2111 -18.6599 43.978
CA 43.0433 -36.5717 53.9325
CA 15.9065 -30.1949 58.2965
CA 43.9282 -31.4766 82.2997
CA 25.2898 -47.5908 51.6828
CA 6.41067 -31.0557 38.5765
CA 21.6709 -13.7334 18.2056
CA 17.5394 -31.4504 64.5953
CA 33.1539 -26.2801 75.7216
CA 13.7096 -15.1746 44.766
CA 14.7467 -5.67182 62.796
CA 29.946 -8.31248 44.6856
CA 43.9396 -14.2691 51.6986
CA 5.03119 -23.4103 19.66
CA 15.0519 -10.5386 25.1186
CA 24.6141 -40.3164 39.7569
CA 41.5323 -15.6997 49.9511
CA 9.57734 -33.1728 48.7442
CA 9.51937 -25.7064 52.8791
CA 47.0458 -11.8737 62.9474
CA 1.62741 -14.7014 47.0397
CA 2.20964 -24.0638 51.1162
CA 32.0937 -36.2843 59.9064
CA 17.8906 -20.8136 58.5301
CA 26.274 -37.8318 41.2573
CA 0.762701 -25.0255 50.0654
CA 19.7252 -20.7318 16.2203
CA 18.062 -23.7364 59.7056
CA 8.77926 -26.8632 54.754
CA 43.6764 -5.57798 63.802
CA 10.2792 -0.740586 45.911
CA 9.65465 -11.6725 46.2102
CA 15.967 -9.3495 29.3837
CA 33.429 -10.0853 42.131
CA 24.0067 -20.7799 63.3553
CA -0.95958 -9.54321 63.7428
CA 11.1735 -9.42018 24.8414
CA 13.6587 -25.199 52.2343
CA 12.3027 -3.4673 77.2516
CA 47.0377 -27.5201 66.3167
CA 28.2453 -42.1274 55.4624
CA 46.488 -31.6179 81.3067
CA 29.007 -21.4442 42.7593
CA 11.4262 -10.2914 16.3895
CA 8.93629 -26.6281 40.3553
CA 21.2062 -13.6136 62.3744
CA -5.40118 -28.8234 50.7728
CA 16.2946 -3.72828 59.9012
CA 31.197 -7.86336 69.6068
CA 12.0893 -26.2114 46.3442
CA 47.5971 -12.199 69.3761
CA 11.4193 0.479487 11.3621
CA 36.2572 -12.1366 66.7743
CA 47.1592 -11.431 77.418
CA 21.8626 -24.4599 59.4328
CA 20.1319 -24.1968 58.2767
CA 34.3024 -9.41541 53.1596
CA 8.84364 2.57022 44.3842
CA -0.0888081 -18.409 45.245
CA 52.5892 -23.1513 60.5517
CA 47.0242 -25.872 76.4545
CA 35.3694 -15.2012 51.9641
CA 37.4231 -9.89241 49.8764
CA 3.30365 -13.9026 70.1266
CA 19.0292 -8.77081 80.766
CA 0.0899247 -28.408 47.086
CA 10.7844 -1.88569 48.6928
CA 31.6093 -19.3577 72.7115
CA 8.15456 -0.867907 48.2825
CA 37.661 -36.9234 59.649
CA 14.3326 -20.7952 19.2549
CA 4.33635 -18.3958 41.5529
CA 22.4703 -24.0432 64.7096
CA 9.0099 1.23232 83.2555
CA 36.0488 -40.5905 63.2762
CA 40.8 -17.1622 60.1463
CA 13.0943 5.24995 8.53514
CA 25.4153 -36.6506 38.4688
CA -13.379 -14.1481 53.7472
CA 40.8272 -28.2999 83.2905
CA 44.8035 -5.45338 61.5964
CA 0.704138 -24.0419 59.0385
CA 5.20294 -9.03651 43.6097
CA 10.8334 -4.33171 19.3129
CA 39.0197 -32.3669 53.2747
CA 43.7162 -17.4924 62.9332
CA 18.0172 -11.4961 33.3369
CA 20.8025 -7.58266 37.8278
CA 31.2651 -32.7813 69.8394
CA 19.7751 -21.7422 58.3134
CA -10.6435 -13.6111 48.5962
CA 1.57634 -4.36345 56.754
CA 12.8279 -6.47631 22.2919
CA 20.965 -28.5588 56.1238
CA 26.2513 -36.6603 53.0311
CA 17.443 -11.5034 41.3394
CA 45.6303 -29.0348 86.7315
CA 33.2338 -40.9707 67.1197
CA 7.33925 1.52757 40.8024
CA 39.7861 -29.6529 58.507
CA 23.4337 -38.4373 38.818
CA 14.2284 -32.3523 65.0375
CA 11.7305 -10.3929 68.3817
CA 33.4555 -17.8689 51.3615
CA 26.6867 -4.31414 47.4126
CA 2.47389 -31.2706 41.2956
CA 16.0002 -13.4275 17.4246
CA 33.9434 -13.29 63.3542
CA 9.4857 -12.5051 50.4168
CA 1.0738 -8.93924 46.1885
CA 48.0111 -8.02002 60.5815
CA 23.6484 -46.3323 54.1897
CA 34.0609 -25.6279 42.6049
CA 38.1267 -26.7595 64.5175
CA 9.85194 -14.594 62.0856
CA 46.3002 -17.7738 54.157
CA 33.7349 -22.5838 71.8674
CA 38.3003 -10.9932 67.3763
CA 33.8248 -32.1436 44.8266
CA 18.5654 -38.2397 45.0414
CA 38.3326 -10.0178 51.5864
CA 29.9807 -30.7156 69.6594
CA 23.5165 -44.5002 50.0839
CA 12.547 -9.31188 65.9305
CA 2.87188 -25.8422 50.8885
CA 11.5836 -23.0447 54.6938
CA 22.7064 -14.5404 70.6029
CA 22.1517 -25.5244 43.4438
CA 14.9414 -10.9398 20.6945
CA 15.4111 2.63864 17.2114
CA 22.4703 -7.61428 22.3935
CA 12.899 -10.6081 30.994
CA 43.7075 -10.7293 60.5521
CA 45.2153 -10.7857 71.5709
CA 29.0005 -20.0058 41.6327
CA 47.276 -23.9298 60.3917
CA 30.5809 -5.5577 56.9527
CA 13.0152 -2.95985 65.8978
CA 3.05357 -23.6884 46.5748
CA -2.46154 -27.6344 51.387
CA 4.57779 -12.8463 59.9423
CA 31.8342 -32.1664 56.8235
CA 21.3923 -7.09862 73.5935
CA 39.361 -29.8617 56.2457
CA 2.98965 -21.7722 41.0418
CA 20.5577 -13.1146 67.0172
CA 0.354776 -13.8764 48.1424
CA 12.4567 -5.27663 52.9517
CA 16.9016 -8.62024 32.4594
CA 12.8043 -10.0497 17.8804
CA 42.6965 -25.0003 57.8906
CA 16.3979 -17.276 20.3909
CA 23.3599 -22.1341 60.8364
CA 14.7307 -7.52044 73.7618
CA 42.5515 -21.4591 75.9846
CA 11.6657 -9.52376 28.6295
CA 18.237 -20.2218 17.435
CA 10.5105 1.49306 12.9703
CA 33.5066 -36.7169 61.1914
CA 26.1689 -36.7223 47.2177
CA 10.9656 -16.5506 41.0558
CA 45.3371 -11.5381 59.1215
CA 13.6624 -29.8105 42.5051
CA 17.3809 6.041 68.46
CA 21.6903 -44.8276 48.939
CA 17.3756 4.1475 46.4564
CA 6.6977 -15.923 63.5781
CA 42.7034 -23.117 77.9196
CA 24.0778 -22.6645 39.4295
CA 47.909 -20.6948 76.0173
CA 19.6094 1.90663 16.0361
CA 26.7332 -34.1872 52.7912
CA 44.0113 -16.7922 54.4827
CA 24.2747 -33.4378 57.5897
CA 0.79388 -29.3689 44.321
CA -1.22654 -34.9451 59.8622
CA 18.7462 -5.29908 66.063
CA 8.15509 -20.3787 28.786
CA 10.8394 -7.27435 32.3705
CA 9.49954 -31.1483 36.4001
CA 29.7954 -33.765 65.6251
CA 37.8546 -38.535 53.153
CA 9.06248 -18.1354 48.5245
CA 38.2603 -32.586 43.658
CA 15.6594 -20.3212 66.746
CA -7.61997 -8.31201 45.6821
CA 42.2955 -41.3568 64.0938
CA 37.3067 -29.1434 65.0182
CA 32.0441 -22.7543 41.2645
CA 12.2169 -23.2643 38.8426
CA 23.5337 -6.51562 66.4429
CA 35.4018 -33.8688 48.454
CA 14.028 -10.948 43.962
CA -1.50756 -41.9636 72.6275
CA 46.0465 -18.591 56.2617
CA 9.70955 -1.29534 50.5947
CA 31.8109 -43.3625 57.6531
CA -1.32077 -16.9466 50.0437
CA 26.9723 -16.2094 63.2377
CA 36.455 -34.3182 52.7651
CA 19.229 -16.447 44.8288
CA 13.7143 -6.28345 44.173
CA 12.1992 -6.81615 68.9941
CA 7.6204 -24.8709 49.9784
CA 17.3152 1.84187 72.4043
CA 15.4023 -3.75268 58.1233
CA 45.8824 -33.3164 52.543
CA -7.23236 -36.616 60.6435
CA 46.7973 -14.1896 56.5864
CA 9.22753 -1.8701 79.9457
CA 49.5298 -12.1549 60.4916
CA 47.9849 -12.1017 58.1047
CA 47.7773 -26.3764 69.3777
CA 34.1184 -13.2714 60.5151
CA 37.9943 -23.4171 78.4072
CA 39.971 -23.393 75.0168
CA 42.8207 -34.2485 54.2477
CA 10.7994 -18.7968 53.0215
CA 36.9567 -17.264 58.3563
CA 17.7017 -5.35924 68.7136
CA 17.6885 -17.1741 16.8968
CA 32.6731 -26.8254 58.6612
CA 1.57039 -13.7744 65.7314
CA 15.8352 4.21135 69.3213
CA 29.9722 -11.3318 75.9724
CA 43.0194 -39.9581 55.2291
CA 40.0151 -5.58084 49.6293
CA 29.6165 -29.0869 72.5283
CA 26.2609 -14.2584 36.8686
CA 34.1304 -36.1746 42.7685
CA 8.09203 -5.59192 66.8485
CA 28.0133 -4.43564 57.608
CA 37.1793 -12.4959 58.5057
CA 6.13857 -26.4073 50.6184
CA 19.3775 -15.2929 23.9936
CA 34.0025 -8.97686 70.0483
CA 12.1227 0.967143 17.4187
CA 7.35429 -29.974 42.2955
CA 11.6169 -38.2694 52.298
CA 35.2168 -49.4639 62.7458
CA 4.23231 -25.1578 56.3095
CA 13.1799 -0.815619 79.738
CA 32.0222 -43.8182 59.9691
CA 16.2168 -21.5292 38.8917
