489

CA 1.01005 -23.482 19.6308
CA 26.4911 -19.0855 63.101
CA 40.9545 -39.4093 58.956
CA 17.613 -2.55031 67.3798
CA 9.38525 -22.5952 38.808
CA 13.1765 -15.1549 36.6955
CA 27.8588 -1.37937 54.2923
CA 33.1832 -12.4788 69.276
CA 19.6633 -10.63 62.5777
CA 17.0219 -3.74266 56.0157
CA 43.1686 -19.5821 62.635
CA 46.7541 -11.7936 65.5354
CA 25.4793 -25.4882 74.4923
CA -2.26319 -19.031 53.5003
CA 8.29939 -7.23349 65.2657
CA 8.89103 -30.1407 39.6622
CA 35.058 -1.04723 46.4717
CA 21.5604 -7.00378 31.9463
CA 12.4746 -0.620107 47.3242
CA 31.7262 -2.04796 46.6077
CA 4.47881 -31.2491 50.7706
CA 6.46105 -30.4217 58.9288
CA 22.6734 -35.9587 42.2102
CA 32.1807 -32.921 51.7515
CA 19.0626 -2.30566 69.6082
CA 35.6056 -21.2954 68.7936
CA -5.92511 -13.6641 46.4797
CA 11.3501 1.98013 44.218
CA 30.6197 -12.946 55.828
CA 45.7346 -12.6575 71.7596
CA 10.1491 -25.3109 47.0591
CA 28.6345 -26.7434 59.8917
CA 24.5366 3.68284 50.8185
CA 17.6557 -20.1597 40.5182
CA 33.7445 -41.6248 59.6166
CA 14.1713 -6.84268 47.1431
CA 43.0914 -20.7382 64.2874
CA 38.4127 -39.3555 60.0264
CA -10.7272 -17.6965 49.0309
CA 5.48505 -21.945 43.6875
CA 27.8524 5.55597 47.6233
CA 25.2137 0.938439 50.2248
CA 8.95679 -4.09218 19.1484
CA 25.6227 -46.4475 56.0907
CA 11.4234 0.221806 78.8043
CA -4.8143 -15.0791 51.7112
CA 20.7051 -37.2983 42.861
CA 14.0184 -29.144 59.8302
CA 17.685 -34.1074 48.1785
CA 20.0708 -39.6151 55.418
CA 51.9995 -29.3994 88.1577
CA 42.8707 -33.7961 80.2489
CA 13.5242 -35.4633 51.8116
CA 9.48808 1.79844 17.9857
CA 14.4882 -14.5033 27.9805
CA 48.1042 -25.428 61.4019
CA 18.4039 -12.2819 22.4597
CA 0.426578 -36.5663 68.7955
CA 8.77326 -9.72014 56.484
CA 19.2407 -23.4245 65.7953
CA 2.42261 -28.2207 40.6815
CA 35.521 -2.6116 49.8919
CA 44.4778 -27.4423 82.2001
CA 26.5448 -4.27148 56.1598
CA 17.5808 -14.5098 19.8718
CA 9.09923 -27.2059 29.7661
CA 29.9913 -9.10774 41.0396
CA 12.7969 -19.9829 37.1662
CA 8.382 -9.63159 23.3133
CA 16.0625 -20.2022 16.5689
CA 32.37 -27.4522 43.0195
CA 18.229 -30.1228 47.44
CA 23.857 -21.9314 34.3208
CA 32.1417 -21.9652 75.8804
CA 31.8042 -8.91848 35.3703
CA 51.2797 -32.4648 84.0281
CA 15.1489 -12.9171 45.424
CA 47.0476 -22.44 84.458
CA 45.9027 -9.16664 57.1329
CA 37.2147 -20.7222 67.8496
CA 12.7639 1.64237 76.2284
CA 25.0632 -22.2086 61.8649
CA 40.9179 -37.8402 55.3505
CA 32.9446 -26.9474 66.594
CA 0.363186 -38.642 71.859
CA 14.5924 -14.7704 77.1303
CA 17.8644 -38.6073 43.1088
CA -1.93308 -34.1594 57.2545
CA 28.5378 -22.5761 78.2146
CA 24.1285 -10.4204 66.4011
CA 40.9911 -35.3431 54.8916
CA 25.7159 -33.6639 49.8096
CA 27.4086 -28.9413 67.6554
CA 39.5409 -22.7096 57.5375
CA 17.7976 -4.87519 62.3015
CA 19.9839 -28.7666 64.0069
CA 34.3355 -20.8171 56.5404
CA 36.0359 -3.13141 47.9029
CA 0.303845 -12.4659 62.1497
CA 26.0487 -41.1805 51.229
CA 13.3238 1.90628 74.3964
CA 21.8451 -19.6241 41.9398
CA 18.1775 -41.2996 52.9857
CA 37.7827 -29.3407 52.5354
CA 12.4263 1.85769 11.9673
CA 11.3601 4.73595 9.8746
CA 31.0234 -16.3732 62.7111
CA 6.68111 -31.9149 42.9001
CA 29.2588 -11.2243 39.4524
CA 13.6073 -16.5864 64.7762
CA 34.4107 -29.8684 56.2344
CA 33.3825 -15.7454 62.5469
CA 41.2886 -29.0454 57.0061
CA 27.2642 -2.77493 53.089
CA 13.32 -10.3428 74.7941
CA 40.1155 -17.31 74.9742
CA -9.78385 -14.0791 42.7621
CA 25.212 -10.3891 35.3341
CA 37.8067 -20.8612 78.5156
CA 13.4958 -3.285 54.794
CA 22.6736 -11.2569 33.1934
CA 34.0904 -43.3402 56.7641
CA 10.6293 -32.2412 58.1381
CA 42.0691 -12.9981 72.0182
CA 34.8032 -8.94883 58.2643
CA 26.6177 -4.09173 61.1979
CA 38.9029 -30.1856 47.4992
CA 49.0199 -18.8431 57.4093
CA 22.9191 -28.4723 76.8498
CA 27.895 -38.4365 47.4631
CA 7.59561 0.630061 47.0042
CA 48.6558 -14.4787 73.4238
CA 42.4192 6.92364 53.6611
CA 26.997 -13.9874 61.3457
CA 11.3487 -8.24074 58.8268
CA 18.2335 -31.8888 52.2422
CA 14.7678 -27.8515 55.7097
CA 13.8258 -14.2354 69.1111
CA 0.328847 -17.8627 51.0351
CA 19.0487 -6.16854 78.8814
CA 19.6552 5.48693 48.5399
CA 17.3484 -9.53163 74.7144
CA 33.8799 -21.0419 76.9702
CA 12.2331 -18.6543 36.0146
CA 9.82903 -9.79719 28.4404
CA 9.01329 -6.50616 22.822
CA 24.1101 -23.7412 62.5349
CA 32.9345 -29.4769 42.5904
CA 14.953 -5.4853 54.3724
CA 31.358 -9.06359 72.3112
CA 29.6513 -25.4669 67.7324
CA 33.8587 -41.6834 62.9454
CA 25.2889 -11.9993 41.0374
CA 38.7232 -15.3578 56.4827
CA 24.7234 -40.8521 58.054
CA 8.8773 -21.8648 57.6089
CA 17.0803 -5.70038 56.6505
CA 19.8318 -19.435 20.159
CA 27.4834 -20.142 72.8528
CA 8.15683 -24.5672 54.1319
CA 29.1165 -25.2196 75.3491
CA 14.8367 -2.73205 48.0557
CA 33.6234 -12.0333 65.1772
CA 28.8582 -35.8086 48.9479
CA 2.8829 -25.3443 45.0263
CA 16.4685 -32.7718 53.5575
CA 7.64847 -15.7211 56.3932
CA 32.1334 -32.0963 63.9589
CA 39.4374 -20.7204 62.2131
CA 30.3858 -14.1036 49.3879
CA 33.0489 -28.8864 55.0141
CA 9.12385 -32.5781 39.0109
CA 0.377798 -34.7675 63.9671
CA 18.1677 3.3658 68.346
CA 24.8397 -30.7614 55.4736
CA 25.837 0.666525 55.5626
CA 27.8402 -27.6608 70.8286
CA 37.2989 -32.3272 43.2274
CA 37.5487 -45.7972 62.3028
CA 11.7678 -17.5018 34.4138
CA 15.5245 -43.5342 48.3535
CA -1.81685 -16.073 47.0784
CA 22.5856 -22.2285 40.6456
CA 0.9356 -22.3099 45.9454
CA 43.1755 -19.4671 59.6451
CA 40.787 -19.3944 61.6121
CA 36.1964 -20.6449 60.2134
CA 6.42613 5.10586 10.5825
CA 17.9876 -20.1309 65.0173
CA 8.43961 -26.9253 47.3513
CA 31.6715 -11.5689 57.9161
CA 50.5455 -25.4057 65.2106
CA 28.7519 -41.0891 61.2207
CA 13.6118 5.92113 69.1016
CA 39.5921 -19.9083 54.5462
CA 8.24787 -19.697 44.1385
CA 42.3019 -18.9221 75.9631
CA 35.7589 -40.6571 59.1321
CA -0.0315082 -10.5652 65.3612
CA 38.1597 -30.7297 54.0741
CA 30.5277 -27.7899 73.4757
CA 46.6288 -7.90884 62.7487
CA 25.9825 -1.41152 55.9621
CA 39.541 -30.0008 62.8792
CA 7.24159 -27.566 29.522
CA 9.06814 -6.37249 55.896
CA 46.0039 -15.59 54.0681
CA 21.5288 -23.5086 36.3286
CA 10.4966 -5.30014 67.2877
CA 10.0967 -26.3055 53.2565
CA 18.0668 -10.008 39.4182
CA 15.1433 -20.0064 57.6886
CA 36.1601 -38.9293 55.8169
CA 7.35856 -15.9061 43.7477
CA 8.65931 -10.9901 59.0806
CA 9.50711 -21.1981 19.4627
CA 24.983 -44.7326 48.7971
CA 17.2041 -29.9744 55.9353
CA 37.6533 0.332123 46.545
CA 33.1224 -13.6616 66.8798
CA 13.8478 -27.0805 46.2896
CA 9.07111 -14.9633 43.0551
CA 30.2966 -10.1624 49.1851
CA 8.25697 -3.7846 49.5737
CA 11.1418 -12.6877 74.3722
CA -8.07076 -32.1249 52.4079
CA 33.0479 -26.8265 40.665
CA 14.753 -23.1142 60.8616
CA 35.0417 -13.5789 75.1924
CA 15.8838 -31.8672 57.4733
CA 26.6597 -6.00968 73.1866
CA 31.5133 -30.1568 76.5781
CA 2.58703 -16.7041 46.5142
CA 46.7592 -13.7207 70.0581
CA 34.2758 -31.5384 40.6412
CA 4.3962 -21.5819 62.0308
CA 4.37397 -21.7563 47.2289
CA 29.9617 -42.4079 57.4547
CA 21.5921 -15.9259 47.1081
CA 38.9957 -11.771 52.8157
CA 16.1532 -22.9871 62.271
CA 17.3522 -13.889 74.9786
CA 23.0943 -24.8312 57.6635
CA 41.7253 7.06894 55.5671
CA 15.92 -16.3726 18.5111
CA -11.1475 -15.3962 45.3929
CA -9.19041 -32.0833 54.3085
CA 15.9065 -30.1949 58.2965
CA 26.5451 -35.5277 48.9878
CA 25.2898 -47.5908 51.6828
CA 6.41067 -31.0557 38.5765
CA 21.6709 -13.7334 18.2056
CA 17.5394 -31.4504 64.5953
CA 15.304 -2.04024 59.9446
CA 13.7096 -15.1746 44.766
CA 14.7467 -5.67182 62.796
CA 29.946 -8.31248 44.6856
CA 32.2906 -13.8712 76.2267
CA 5.03119 -23.4103 19.66
CA 15.0519 -10.5386 25.1186
CA 22.29 -12.2177 41.7949
CA 41.5323 -15.6997 49.9511
CA 9.57734 -33.1728 48.7442
CA 40.8329 -39.3781 60.8236
CA 47.0458 -11.8737 62.9474
CA 19.9738 -12.4899 19.8446
CA 14.1273 -4.57711 19.9195
CA 48.1795 -17.7715 62.9245
CA 48.9203 -16.8126 61.1896
CA 26.274 -37.8318 41.2573
CA 7.23778 -6.92354 57.5357
CA 31.8941 -22.4762 77.9824
CA 5.73834 -19.9 39.8738
CA 8.77926 -26.8632 54.754
CA 43.6764 -5.57798 63.802
CA 37.6503 -25.7385 54.1072
CA 9.65465 -11.6725 46.2102
CA 15.967 -9.3495 29.3837
CA 33.429 -10.0853 42.131
CA 11.0248 -7.93146 71.4291
CA 33.6198 -39.8715 54.601
CA 11.1735 -9.42018 24.8414
CA 37.384 -1.34735 48.0036
CA 32.9925 -27.9391 48.3721
CA 47.0377 -27.5201 66.3167
CA 1.04117 -28.028 50.8207
CA 46.488 -31.6179 81.3067
CA 30.3812 -4.06394 44.8917
CA 11.4262 -10.2914 16.3895
CA 30.3665 -40.5317 56.7906
CA 21.2062 -13.6136 62.3744
CA 2.75843 -25.0662 48.2947
CA 47.5652 -33.0407 87.1059
CA 27.3167 -25.4606 63.362
CA 18.0107 -16.4987 20.2739
CA 15.5267 -18.7464 54.3307
CA 11.4193 0.479487 11.3621
CA 36.2572 -12.1366 66.7743
CA 47.1592 -11.431 77.418
CA 9.76538 -2.07205 55.2603
CA 6.50384 -21.9123 33.6395
CA 20.6829 2.94801 52.5863
CA 5.10785 -32.5704 38.0287
CA 10.5511 -13.718 58.9621
CA 16.1071 4.7877 67.353
CA 47.0242 -25.872 76.4545
CA 32.2052 -45.0059 59.5248
CA 26.6353 -22.7584 65.9885
CA 34.5737 -30.6758 38.9108
CA 34.7784 -29.6576 50.2008
CA 12.227 -12.0861 75.7869
CA 10.7844 -1.88569 48.6928
CA 31.6093 -19.3577 72.7115
CA 12.424 -4.29279 56.6602
CA 7.12515 -15.7583 48.3861
CA 14.3326 -20.7952 19.2549
CA 9.39255 -23.3882 51.5379
CA 17.4455 -18.6369 45.2979
CA 50.8027 -31.1536 86.6236
CA 8.66916 -29.9784 48.106
CA 28.465 -19.2184 68.8514
CA 13.0943 5.24995 8.53514
CA 25.8873 -38.0279 47.5875
CA 15.7143 -17.3313 67.8987
CA 40.8272 -28.2999 83.2905
CA 44.8035 -5.45338 61.5964
CA 47.0607 -29.9085 81.8319
CA 51.9039 -16.868 61.1907
CA 10.8334 -4.33171 19.3129
CA 39.0197 -32.3669 53.2747
CA 43.7162 -17.4924 62.9332
CA 10.2416 -3.27109 72.504
CA 20.8025 -7.58266 37.8278
CA 28.3698 -9.55212 45.7068
CA 19.7751 -21.7422 58.3134
CA -10.6435 -13.6111 48.5962
CA 9.74103 -17.4344 57.5429
CA 12.8279 -6.47631 22.2919
CA 20.965 -28.5588 56.1238
CA 3.58094 -31.0604 32.8818
CA 17.443 -11.5034 41.3394
CA 45.6303 -29.0348 86.7315
CA 33.2338 -40.9707 67.1197
CA 7.33925 1.52757 40.8024
CA 39.7861 -29.6529 58.507
CA 28.034 -15.6558 60.0242
CA 14.2284 -32.3523 65.0375
CA 29.2414 -33.6718 53.5682
CA 8.37734 -28.3031 57.9984
CA 49.9361 -17.9584 53.1497
CA 14.6285 -25.0619 57.864
CA 16.0002 -13.4275 17.4246
CA 30.2521 -19.6762 54.9875
CA 9.4857 -12.5051 50.4168
CA 36.6679 -30.6003 41.2742
CA 28.8308 -20.7188 62.7266
CA 23.6484 -46.3323 54.1897
CA 10.7465 -22.244 33.327
CA 24.6902 -5.7272 18.9233
CA 12.4723 -2.22341 45.1019
CA 46.3002 -17.7738 54.157
CA 33.7349 -22.5838 71.8674
CA 38.3003 -10.9932 67.3763
CA 33.8248 -32.1436 44.8266
CA 18.5654 -38.2397 45.0414
CA 10.9928 -29.8018 42.8905
CA 29.9807 -30.7156 69.6594
CA 44.4199 -9.10484 68.9187
CA 44.5741 -25.6078 81.556
CA 24.096 -36.294 56.5096
CA 11.5836 -23.0447 54.6938
CA 22.7064 -14.5404 70.6029
CA 19.7535 -10.4655 73.3917
CA 19.4472 -2.69144 65.8977
CA 15.4111 2.63864 17.2114
CA 29.6268 -8.2401 73.0339
CA 12.4582 -18.459 64.4304
CA 30.6127 -9.44144 76.2734
CA 16.8969 -14.168 35.905
CA 46.0576 -12.1783 67.8729
CA 47.276 -23.9298 60.3917
CA 12.5184 -20.6248 26.2375
CA 14.2641 -23.7521 62.6879
CA 38.7776 -14.3031 75.2604
CA 8.80257 1.04964 42.2586
CA 4.57779 -12.8463 59.9423
CA 42.1665 -13.5022 54.8117
CA 21.3923 -7.09862 73.5935
CA 34.844 -42.3499 54.1827
CA 2.98965 -21.7722 41.0418
CA 20.5577 -13.1146 67.0172
CA 9.38338 6.70281 44.4183
CA 35.5 -37.4287 59.567
CA 38.5625 -28.3557 86.7338
CA 6.60115 -25.4911 60.6194
CA 42.6965 -25.0003 57.8906
CA 15.8374 -20.9397 62.9049
CA 23.4315 -19.7276 67.8914
CA 36.0569 -0.309899 51.2419
CA 42.5515 -21.4591 75.9846
CA 22.6594 -8.83269 19.2546
CA 18.237 -20.2218 17.435
CA 10.5105 1.49306 12.9703
CA 37.02 5.34828 49.8704
CA 17.8801 -17.7977 46.9163
CA 13.9936 -3.71027 70.3494
CA 30.9043 -7.98988 55.4179
CA 13.1948 -34.9395 55.7353
CA 16.4643 -19.4614 50.269
CA 21.6903 -44.8276 48.939
CA 8.03241 -21.0331 36.6169
CA 6.13677 -17.1728 63.7866
CA 42.7034 -23.117 77.9196
CA 24.0778 -22.6645 39.4295
CA 21.9046 -21.5538 37.4576
CA 19.6094 1.90663 16.0361
CA 16.0503 -8.83563 19.5397
CA 44.0113 -16.7922 54.4827
CA 13.2975 -18.8921 54.8717
CA 21.5838 -8.98971 33.251
CA -1.22654 -34.9451 59.8622
CA 18.7462 -5.29908 66.063
CA 8.15509 -20.3787 28.786
CA 28.3166 -40.6868 57.2163
CA 34.7029 -29.132 40.9289
CA 29.7954 -33.765 65.6251
CA 23.7805 -43.2409 54.0274
CA 9.06248 -18.1354 48.5245
CA 46.4465 -17.5162 69.7213
CA 19.9239 -6.28315 31.5866
CA 13.561 -12.8609 35.7989
CA 30.1924 -41.0775 72.3729
CA 37.3067 -29.1434 65.0182
CA 36.4894 -44.6091 60.2785
CA 31.4538 -7.46292 45.2007
CA 19.9029 -7.09517 27.8314
CA 35.4018 -33.8688 48.454
CA 14.028 -10.948 43.962
CA 2.55285 -17.6913 48.8519
CA 3.3869 -31.9555 36.2308
CA 13.0831 -15.7708 29.8638
CA 5.14443 -8.33752 45.8522
CA -1.32077 -16.9466 50.0437
CA 13.419 -12.7347 21.3535
CA 45.4956 -29.1667 83.6143
CA 19.229 -16.447 44.8288
CA 17.1962 -5.44553 46.0624
CA -10.3385 -13.6511 46.2301
CA 7.6204 -24.8709 49.9784
CA 17.3152 1.84187 72.4043
CA -0.994317 -29.968 54.5268
CA 25.2174 -17.1217 40.3189
CA 37.5664 -29.5295 88.3997
CA 36.2633 -6.92108 56.7515
CA 20.9368 -16.3331 20.9127
CA -2.83874 -32.4392 51.9415
CA 47.9849 -12.1017 58.1047
CA 39.0325 4.42811 52.7992
CA 29.9687 -25.2499 71.2445
CA 16.326 -19.2887 35.8461
CA 39.971 -23.393 75.0168
CA 32.2872 -40.4447 59.7596
CA 10.7994 -18.7968 53.0215
CA 36.2191 -44.5599 64.7113
CA 23.4818 -40.681 55.9641
CA 17.6885 -17.1741 16.8968
CA 32.6731 -26.8254 58.6612
CA 1.57039 -13.7744 65.7314
CA 15.8352 4.21135 69.3213
CA 29.9722 -11.3318 75.9724
CA 11.3987 -13.4887 18.4815
CA 40.0151 -5.58084 49.6293
CA 41.6134 -31.2531 67.3622
CA 33.5664 -49.4814 64.4092
CA 12.9165 -18.0423 26.8859
CA 26.5147 -31.823 51.0218
CA 19.7085 -8.28406 73.8073
CA 6.71867 -23.1361 28.051
CA 32.3397 -6.64718 72.7644
CA 19.3775 -15.2929 23.9936
CA 14.7428 -18.4839 26.4459
CA 12.1227 0.967143 17.4187
CA 7.35429 -29.974 42.2955
CA 11.6169 -38.2694 52.298
CA 30.1073 -42.0762 70.05
CA 4.23231 -25.1578 56.3095
CA 38.0855 -38.0478 57.385
CA 6.61718 -30.6861 33.5555
CA 19.3593 -15.2447 61.2273
