489

CA 1.01005 -23.482 19.6308
CA 39.4054 -5.76817 61.4203
CA 40.9545 -39.4093 58.956
CA 17.613 -2.55031 67.3798
CA 9.38525 -22.5952 38.808
CA 19.5909 -14.1531 64.5824
CA 27.5172 -40.8746 47.6161
CA 19.1985 -11.1894 25.9606
CA 4.20257 -28.5362 59.1647
CA 17.809 -16.3483 54.6251
CA 28.2879 -0.294396 51.3884
CA 16.6647 -18.6477 51.9913
CA 25.4793 -25.4882 74.4923
CA -2.26319 -19.031 53.5003
CA 8.29939 -7.23349 65.2657
CA 8.89103 -30.1407 39.6622
CA 15.6363 1.2195 76.1369
CA 25.3968 4.88685 46.3086
CA 12.4746 -0.620107 47.3242
CA 31.7262 -2.04796 46.6077
CA 4.47881 -31.2491 50.7706
CA 15.1143 -18.1415 30.7947
CA 25.8242 -33.2335 56.0457
CA 31.5069 -8.43855 57.8128
CA 19.0626 -2.30566 69.6082
CA 35.6056 -21.2954 68.7936
CA -5.92511 -13.6641 46.4797
CA 11.3501 1.98013 44.218
CA 26.5611 -20.0505 37.6007
CA 12.6193 -19.633 26.5853
CA 10.1491 -25.3109 47.0591
CA 28.6345 -26.7434 59.8917
CA 24.5366 3.68284 50.8185
CA 13.11 2.54986 45.7043
CA 25.2191 -6.24573 60.544
CA 14.1713 -6.84268 47.1431
CA 43.0914 -20.7382 64.2874
CA 7.58648 -4.28782 22.8382
CA 37.2647 -27.6109 43.3401
CA 5.48505 -21.945 43.6875
CA 27.8524 5.55597 47.6233
CA 17.0771 -3.85809 60.3859
CA 8.95679 -4.09218 19.1484
CA 25.6227 -46.4475 56.0907
CA 18.3938 -19.4857 55.4562
CA 15.0919 -37.8164 45.9494
CA 20.6798 -22.9712 59.5307
CA 14.0184 -29.144 59.8302
CA 17.685 -34.1074 48.1785
CA 35.1306 -12.2316 78.0745
CA 51.9995 -29.3994 88.1577
CA 42.8707 -33.7961 80.2489
CA 13.5242 -35.4633 51.8116
CA 9.48808 1.79844 17.9857
CA 14.4882 -14.5033 27.9805
CA 48.1042 -25.428 61.4019
CA 17.0156 -13.0919 73.0796
CA 37.3168 -10.2079 64.8742
CA 21.3106 -18.172 36.5465
CA 19.2407 -23.4245 65.7953
CA 2.42261 -28.2207 40.6815
CA 35.521 -2.6116 49.8919
CA 44.4764 -31.042 88.1961
CA 26.5448 -4.27148 56.1598
CA 32.5247 -29.0401 66.9349
CA 10.6122 -17.9227 21.4933
CA 10.9466 -16.8649 62.893
CA 24.2787 -43.9424 50.7757
CA 8.382 -9.63159 23.3133
CA 16.0625 -20.2022 16.5689
CA 28.1074 -34.995 52.3527
CA 7.15886 -19.9399 46.6446
CA 47.8236 -32.0469 82.7808
CA 13.8069 -13.4089 24.8229
CA 22.9528 -13.5463 38.9871
CA 0.38922 -22.1293 40.8029
CA 15.1489 -12.9171 45.424
CA 47.0476 -22.44 84.458
CA 14.9431 0.720951 16.2598
CA 37.2147 -20.7222 67.8496
CA 2.95096 -19.3009 21.2821
CA 25.0632 -22.2086 61.8649
CA 45.205 -37.8928 54.478
CA 24.0912 -28.9534 71.0214
CA 6.65947 -11.8391 48.0087
CA 26.0554 -0.154954 63.2421
CA 17.8644 -38.6073 43.1088
CA 13.2037 -22.041 13.0038
CA 28.5378 -22.5761 78.2146
CA 12.0981 -28.7565 53.0918
CA 40.9911 -35.3431 54.8916
CA 25.7159 -33.6639 49.8096
CA 24.4218 -8.6045 52.4334
CA 50.6211 -27.4829 72.2314
CA 17.7976 -4.87519 62.3015
CA 19.9839 -28.7666 64.0069
CA 34.3355 -20.8171 56.5404
CA 36.0359 -3.13141 47.9029
CA 0.303845 -12.4659 62.1497
CA 26.0487 -41.1805 51.229
CA 36.7002 -21.5043 56.4376
CA 21.8451 -19.6241 41.9398
CA 18.1775 -41.2996 52.9857
CA 27.5374 -8.04667 73.3183
CA 7.28008 -17.5068 53.5281
CA -1.65002 -13.8324 64.1263
CA 31.0234 -16.3732 62.7111
CA 41.1377 -12.8078 65.559
CA 44.2967 -17.4564 58.9659
CA 49.4738 -15.056 61.7882
CA 34.4107 -29.8684 56.2344
CA 34.1511 1.9925 45.1945
CA 30.804 -38.4742 71.0189
CA 29.3067 -24.6347 79.2
CA 13.32 -10.3428 74.7941
CA 30.3385 -20.1405 76.8808
CA 2.22175 -34.0474 32.1087
CA 25.212 -10.3891 35.3341
CA 48.5931 -17.0375 70.4347
CA 26.3686 -4.37369 51.8008
CA 33.8134 -10.5505 56.5417
CA 7.72938 2.17661 52.5605
CA 25.4825 -12.7764 51.0075
CA 42.0691 -12.9981 72.0182
CA 7.79015 -4.38298 44.3202
CA 26.6177 -4.09173 61.1979
CA 15.178 -7.75263 52.1669
CA 30.6161 -33.4652 52.671
CA 2.84768 -35.2991 63.1141
CA 27.895 -38.4365 47.4631
CA 7.59561 0.630061 47.0042
CA 29.4164 -32.7473 49.8103
CA 42.4192 6.92364 53.6611
CA 50.3286 -17.1976 55.1236
CA 48.5585 -29.5568 69.0375
CA 12.8376 -5.67135 51.28
CA 49.8822 -26.4951 66.9071
CA 16.3657 -36.1813 52.3973
CA 0.328847 -17.8627 51.0351
CA 24.4353 -11.3153 68.173
CA 38.6626 -26.9491 89.0753
CA 15.2255 -1.07603 43.6046
CA 33.8799 -21.0419 76.9702
CA 5.14563 -19.2153 22.0704
CA 9.56342 -18.0245 52.6991
CA 9.01329 -6.50616 22.822
CA 15.3213 -20.0198 57.9526
CA 32.9345 -29.4769 42.5904
CA 38.6792 -22.1188 54.3434
CA 31.358 -9.06359 72.3112
CA 10.705 0.608546 75.2957
CA 14.8493 -14.1561 22.0557
CA 25.2889 -11.9993 41.0374
CA 38.7232 -15.3578 56.4827
CA 24.7234 -40.8521 58.054
CA 8.8773 -21.8648 57.6089
CA 17.0803 -5.70038 56.6505
CA 19.8318 -19.435 20.159
CA 10.6098 -16.9726 60.7599
CA 8.15683 -24.5672 54.1319
CA 23.3938 -1.99938 57.7356
CA 28.8936 0.202763 54.2835
CA 33.6234 -12.0333 65.1772
CA 7.81216 -0.315975 48.8271
CA 19.5418 -22.2519 38.4432
CA 26.5412 -21.5662 76.6906
CA 3.17957 -31.1614 62.1552
CA 32.1334 -32.0963 63.9589
CA 30.8797 -33.1659 65.5506
CA 32.5171 -8.53657 44.1584
CA 36.7773 -24.295 53.2742
CA 9.12385 -32.5781 39.0109
CA 7.35161 3.98596 50.417
CA 18.1677 3.3658 68.346
CA 24.8397 -30.7614 55.4736
CA 26.9061 -29.2391 50.4679
CA 27.8402 -27.6608 70.8286
CA 4.93006 -24.1602 33.3595
CA 20.2393 -11.8325 43.2545
CA 28.5771 -6.42039 41.7185
CA 15.5245 -43.5342 48.3535
CA -1.81685 -16.073 47.0784
CA 25.3741 -41.984 52.8398
CA 28.0823 -14.7529 78.6271
CA 41.0055 -41.1737 54.3663
CA 40.787 -19.3944 61.6121
CA 33.6315 -6.40764 58.985
CA 39.0575 -29.5959 44.8435
CA 7.08793 -30.7575 38.7034
CA 39.7995 -33.2947 84.557
CA 13.34 -33.225 59.0998
CA 50.5455 -25.4057 65.2106
CA 16.6647 -38.2445 44.5594
CA 8.12503 -20.1773 53.4478
CA 39.5921 -19.9083 54.5462
CA 8.24787 -19.697 44.1385
CA 42.3019 -18.9221 75.9631
CA 27.6325 -15.161 76.8443
CA -0.0315082 -10.5652 65.3612
CA 38.1597 -30.7297 54.0741
CA 30.5277 -27.7899 73.4757
CA 18.9406 -9.26088 23.2467
CA 25.9825 -1.41152 55.9621
CA 40.0125 -32.3256 88.7643
CA 7.24159 -27.566 29.522
CA 15.6878 -22.6863 57.6339
CA 28.1029 -29.8552 70.6643
CA 21.5288 -23.5086 36.3286
CA 10.4966 -5.30014 67.2877
CA 10.0967 -26.3055 53.2565
CA 16.3193 -5.26444 71.1632
CA 41.5661 -25.5648 76.8795
CA 29.513 -12.09 72.3311
CA 7.35856 -15.9061 43.7477
CA 16.1359 -18.3123 57.8271
CA 9.50711 -21.1981 19.4627
CA 24.983 -44.7326 48.7971
CA 17.2041 -29.9744 55.9353
CA 26.6769 -32.8982 45.369
CA 13.5112 -27.8868 56.649
CA 13.5098 -22.0681 54.0966
CA 9.58517 -1.59547 12.9662
CA 30.2966 -10.1624 49.1851
CA 7.70439 -20.2145 32.852
CA 11.1418 -12.6877 74.3722
CA 20.8119 -19.5541 52.9329
CA 33.0479 -26.8265 40.665
CA 28.3968 -21.3957 57.7328
CA 35.0417 -13.5789 75.1924
CA 18.4805 -8.69744 26.3716
CA 26.6597 -6.00968 73.1866
CA 20.2841 -12.3627 49.9141
CA 2.58703 -16.7041 46.5142
CA 46.7592 -13.7207 70.0581
CA -0.435186 -12.4402 64.7727
CA 4.3962 -21.5819 62.0308
CA 2.98392 -26.0191 17.2602
CA 4.00365 -17.3059 61.0056
CA 21.5921 -15.9259 47.1081
CA 32.6979 3.4163 44.85
CA 28.1462 -6.7282 44.8011
CA 17.3522 -13.889 74.9786
CA 23.0943 -24.8312 57.6635
CA 39.4533 -26.3099 85.6555
CA 15.92 -16.3726 18.5111
CA -11.1475 -15.3962 45.3929
CA 17.8548 -13.5215 65.0272
CA 15.9065 -30.1949 58.2965
CA 50.0379 -18.5447 60.4296
CA 25.2898 -47.5908 51.6828
CA 9.82545 -24.3319 19.2175
CA 21.6709 -13.7334 18.2056
CA 17.5394 -31.4504 64.5953
CA 15.304 -2.04024 59.9446
CA -4.46631 -34.9158 51.8059
CA 26.778 -43.3514 54.2243
CA 39.3348 -35.3311 57.5668
CA 32.2906 -13.8712 76.2267
CA 5.03119 -23.4103 19.66
CA 48.7516 -18.2696 64.5556
CA 22.29 -12.2177 41.7949
CA 41.5323 -15.6997 49.9511
CA 24.0629 -28.317 74.7561
CA 26.9878 -26.0712 58.857
CA 47.0458 -11.8737 62.9474
CA 19.9738 -12.4899 19.8446
CA 14.1273 -4.57711 19.9195
CA 4.21488 -33.8183 60.7664
CA 24.8278 0.000811718 52.7121
CA 38.1766 -37.4093 56.4097
CA 27.367 8.42805 48.5331
CA 54.2647 -22.3421 53.4409
CA 14.6756 -14.884 44.7161
CA 49.4007 -16.2699 67.4583
CA 43.6764 -5.57798 63.802
CA 37.6503 -25.7385 54.1072
CA 9.65465 -11.6725 46.2102
CA 26.3999 -21.7609 69.8987
CA 33.429 -10.0853 42.131
CA 11.0248 -7.93146 71.4291
CA 38.975 -42.0838 59.5558
CA 42.6278 -4.8006 60.2125
CA 36.9687 -1.56957 71.0667
CA 48.5116 -14.9531 60.1516
CA 38.5127 -15.7037 54.494
CA 49.484 -20.2646 54.1926
CA 46.488 -31.6179 81.3067
CA 43.9964 -34.9818 58.1111
CA 28.7605 -40.9231 66.4126
CA 30.3665 -40.5317 56.7906
CA 21.2062 -13.6136 62.3744
CA 20.8337 1.25797 56.1253
CA 33.6645 -8.46175 57.6575
CA 50.157 -20.2833 61.7698
CA 27.0623 -13.1655 57.5833
CA 15.5267 -18.7464 54.3307
CA 11.4193 0.479487 11.3621
CA 8.70052 -35.1229 50.1612
CA 7.41136 -4.27027 57.5522
CA 2.03043 -19.7195 51.1935
CA 6.50384 -21.9123 33.6395
CA 13.5021 -14.0765 77.4868
CA 5.10785 -32.5704 38.0287
CA 1.77204 -27.6735 63.0684
CA 27.5532 -0.902451 53.2846
CA 10.4398 -21.8804 40.7492
CA 13.2377 -1.42044 42.692
CA 36.766 3.32454 51.9361
CA 39.5755 -2.12007 47.586
CA 39.012 -5.07164 75.845
CA 18.107 -19.1746 68.7337
CA 12.9694 -3.29669 65.5924
CA 49.9983 -21.2777 51.6636
CA 12.424 -4.29279 56.6602
CA 7.12515 -15.7583 48.3861
CA 14.3326 -20.7952 19.2549
CA 9.39255 -23.3882 51.5379
CA 19.743 -14.116 42.8915
CA 36.3354 -14.1593 65.5875
CA 2.72861 -22.0402 52.2558
CA 28.465 -19.2184 68.8514
CA 13.0943 5.24995 8.53514
CA 21.1768 3.59789 68.2002
CA 22.908 -17.4926 23.6027
CA 40.8272 -28.2999 83.2905
CA 44.8035 -5.45338 61.5964
CA 26.2211 -2.36701 49.3759
CA 37.2173 -40.9804 61.4453
CA 10.8334 -4.33171 19.3129
CA 16.173 -19.3671 61.2585
CA 49.5531 -5.90631 60.5859
CA 51.8862 -22.5846 52.8141
CA 3.89289 -20.2656 39.9409
CA -5.76399 -16.6885 52.1948
CA 19.7751 -21.7422 58.3134
CA 16.8143 -15.2941 64.6243
CA 39.99 -32.9489 55.335
CA 46.7665 -16.8041 49.4407
CA 7.45825 -26.3415 55.9076
CA 39.584 -35.0961 85.5514
CA 8.01183 -14.7535 56.058
CA 45.6303 -29.0348 86.7315
CA 33.2338 -40.9707 67.1197
CA 41.5216 -2.97299 48.7575
CA 39.7861 -29.6529 58.507
CA 25.0931 -27.2663 53.7384
CA 10.7494 -17.005 49.5461
CA 9.91171 0.0307219 43.3708
CA 7.92045 -24.5523 35.5663
CA 49.9361 -17.9584 53.1497
CA 28.0047 -25.1486 57.1007
CA 16.0002 -13.4275 17.4246
CA 30.2521 -19.6762 54.9875
CA 9.4857 -12.5051 50.4168
CA 36.0171 -32.5856 84.8544
CA 28.8308 -20.7188 62.7266
CA 23.6484 -46.3323 54.1897
CA 43.247 -16.9869 74.3412
CA 7.35594 -21.2392 50.6646
CA 12.4723 -2.22341 45.1019
CA 35.16 -0.513065 45.4155
CA 33.7349 -22.5838 71.8674
CA 51.4732 -17.4909 51.976
CA 33.8248 -32.1436 44.8266
CA 9.88927 -10.9191 48.567
CA 10.9928 -29.8018 42.8905
CA 43.7312 -13.3045 71.1014
CA 17.5135 -4.11424 51.4033
CA 44.5741 -25.6078 81.556
CA 36.9994 -5.30149 73.0493
CA 11.5836 -23.0447 54.6938
CA 31.7854 -32.6033 47.9758
CA 31.8145 -38.1664 59.3601
CA 36.1502 -37.601 65.3602
CA 50.5129 -13.5545 73.6927
CA 7.27763 -26.8964 54.1114
CA 12.4582 -18.459 64.4304
CA 21.445 -8.36509 27.8029
CA 15.3189 -13.885 64.048
CA 35.9775 -46.3258 61.5915
CA 47.276 -23.9298 60.3917
CA 8.81941 -29.7552 48.148
CA 14.2641 -23.7521 62.6879
CA 1.93403 -11.9898 66.6466
CA 33.1812 -41.8111 61.8249
CA 19.1677 -40.2431 43.0124
CA 42.1665 -13.5022 54.8117
CA 49.8282 -28.5222 90.3014
CA 42.4835 -15.2379 48.3057
CA 31.1648 -24.4821 70.0002
CA 20.5577 -13.1146 67.0172
CA 40.6226 -4.79711 70.2629
CA 2.1251 -29.6109 52.8579
CA 28.3514 -24.8687 77.3688
CA 6.60115 -25.4911 60.6194
CA 42.6965 -25.0003 57.8906
CA 15.8374 -20.9397 62.9049
CA 23.4315 -19.7276 67.8914
CA 36.0569 -0.309899 51.2419
CA 31.8009 -34.3382 53.871
CA 17.4086 -4.45116 21.7628
CA 18.237 -20.2218 17.435
CA 9.94001 -21.1432 52.1879
CA 5.44611 -25.4035 64.4852
CA 14.2905 -10.205 53.1051
CA 17.8382 -43.1521 47.6166
CA 30.9043 -7.98988 55.4179
CA 34.8146 -42.8058 61.921
CA 16.4643 -19.4614 50.269
CA 38.063 -2.80343 45.1656
CA 11.9554 -23.0662 52.7345
CA 20.8345 -12.0183 59.7843
CA 35.3505 -24.6627 72.5428
CA 8.5403 -19.1615 22.2062
CA 21.9046 -21.5538 37.4576
CA 40.0132 -30.3028 65.5251
CA 16.0503 -8.83563 19.5397
CA 44.0113 -16.7922 54.4827
CA 13.2975 -18.8921 54.8717
CA 0.189198 -16.4282 61.5891
CA 12.775 -19.3621 57.5753
CA 18.7462 -5.29908 66.063
CA 2.14536 -32.0784 34.0892
CA 32.2039 -4.46008 50.0827
CA -1.6504 -23.3918 52.9863
CA 15.953 -19.9445 31.4848
CA 15.0925 -12.088 26.407
CA 16.0614 -26.3952 67.0509
CA 46.4465 -17.5162 69.7213
CA -1.91045 -8.98304 69.2147
CA 11.6273 -19.1734 43.4903
CA 35.0854 -9.6845 54.0422
CA 37.3067 -29.1434 65.0182
CA 40.0943 -25.6499 75.172
CA 31.4538 -7.46292 45.2007
CA 7.46617 -14.5031 22.2401
CA 19.7754 -43.0484 44.0583
CA 0.849869 -17.7659 58.3713
CA 17.8231 -35.9294 46.0307
CA 3.3869 -31.9555 36.2308
CA 12.0217 -12.6365 56.9946
CA 15.7542 -24.3698 58.6086
CA -1.32077 -16.9466 50.0437
CA 13.419 -12.7347 21.3535
CA 9.51728 -20.5696 17.7553
CA 19.229 -16.447 44.8288
CA 28.4287 -11.1096 43.6157
CA 38.1888 -32.0301 88.7309
CA 15.1743 -19.4934 56.1181
CA 17.3152 1.84187 72.4043
CA 17.4647 -14.2941 20.2613
CA 25.2174 -17.1217 40.3189
CA 37.5664 -29.5295 88.3997
CA 36.2633 -6.92108 56.7515
CA 33.4084 -12.4063 75.555
CA -2.83874 -32.4392 51.9415
CA 40.9137 -6.21159 72.7822
CA 39.0325 4.42811 52.7992
CA 32.2905 -12.4158 44.5989
CA 16.326 -19.2887 35.8461
CA 16.0275 -15.9728 12.3391
CA 15.7493 -16.6716 29.8583
CA 4.41833 -30.8095 38.1854
CA 13.9231 8.0778 5.48437
CA 30.6488 -9.72206 56.6529
CA 17.6885 -17.1741 16.8968
CA 47.617 -37.2068 58.1066
CA 34.0943 -20.2316 73.0239
CA 14.3946 -43.4368 45.7878
CA 29.9722 -11.3318 75.9724
CA 16.6062 -16.1873 33.8596
CA 1.05222 -26.1311 53.7751
CA 41.6134 -31.2531 67.3622
CA 33.5664 -49.4814 64.4092
CA 13.9321 -9.059 50.8266
CA 26.5147 -31.823 51.0218
CA 21.9423 -11.627 55.4488
CA 17.7709 -3.6187 55.4706
CA 37.5973 -12.6742 53.7919
CA 4.91861 -26.8213 59.2099
CA 14.7428 -18.4839 26.4459
CA 12.1227 0.967143 17.4187
CA 17.1077 -14.3679 32.3762
CA 16.683 -14.1457 41.2756
CA 3.95958 -30.8582 34.7693
CA 4.23231 -25.1578 56.3095
CA 14.371 -17.2228 54.7602
CA 34.5715 -10.5129 73.3162
CA 27.0255 -34.535 42.2669
