489

CA 22.3751 -20.1715 17.1631
CA 39.4054 -5.76817 61.4203
CA 18.1917 -6.45943 18.1308
CA 23.2749 -4.66187 63.5823
CA 9.38525 -22.5952 38.808
CA 12.7177 -32.5834 46.5935
CA 20.1343 -11.2015 55.3149
CA 31.6822 -4.71952 73.6318
CA 39.7135 -30.7269 54.6131
CA 13.0164 8.29004 66.7527
CA 30.7289 -6.94809 58.0127
CA 17.8589 -29.6322 57.614
CA 36.3916 -9.89596 40.0719
CA 14.7469 4.08009 68.2832
CA 42.4657 -17.8738 52.868
CA 15.2938 -26.8621 53.6714
CA 12.6224 -19.072 46.3791
CA 31.8121 4.06949 46.4059
CA 38.5375 -26.7803 56.4817
CA 45.8639 -23.1293 85.8234
CA 20.4253 -11.496 16.7312
CA 8.2899 -25.0943 61.1879
CA 22.1397 -27.7283 63.7603
CA 37.4265 -8.36392 66.8237
CA 29.8615 -37.2815 63.5303
CA 24.709 -38.7854 57.5004
CA 22.0394 -21.3855 39.9022
CA 13.986 -34.7175 44.6883
CA 22.5852 -16.4093 49.8351
CA 8.24465 -26.4289 36.8498
CA 19.9411 -22.3394 55.7483
CA 28.6345 -26.7434 59.8917
CA 43.3504 -9.30735 56.7718
CA 19.6962 -19.2441 71.2922
CA 28.9715 -8.46962 61.7486
CA 14.1713 -6.84268 47.1431
CA 30.6385 -13.4574 52.9415
CA 28.705 -18.1521 26.9369
CA 47.6186 -30.3461 72.1602
CA 31.901 -37.4653 50.5096
CA 24.8384 -19.4408 25.4906
CA 17.0771 -3.85809 60.3859
CA 24.5413 -42.2352 52.4435
CA 29.5102 -31.3068 46.5318
CA 23.784 -8.47112 59.3584
CA 15.5671 -20.8854 13.1786
CA 24.5047 -17.5917 39.8744
CA 44.8697 -21.8448 69.8509
CA 46.9523 -13.7738 69.5502
CA 3.11258 -26.2921 59.1057
CA 40.6786 -29.0044 88.7375
CA 56.9967 -20.8212 44.5623
CA 25.0293 -4.30738 50.4999
CA 14.9738 -11.1841 17.7331
CA 35.361 -4.15693 40.926
CA 48.1042 -25.428 61.4019
CA 16.3809 3.52679 62.0909
CA 37.3168 -10.2079 64.8742
CA 33.0094 1.52353 48.6757
CA 19.2407 -23.4245 65.7953
CA 20.1803 -0.919939 65.4732
CA 32.9287 -10.667 65.6441
CA 7.35516 -5.87021 18.8478
CA 57.334 -22.9005 53.9927
CA 23.5401 -40.0412 55.5226
CA 33.4093 -49.6498 67.1383
CA 41.6187 -9.94165 62.3791
CA 24.2787 -43.9424 50.7757
CA 50.1056 -28.277 62.4528
CA 16.0625 -20.2022 16.5689
CA 31.8636 -35.7126 49.6232
CA 31.3254 -2.86759 48.8513
CA 34.5633 -32.6586 41.0781
CA 23.0973 -26.3619 80.3619
CA 33.5774 -41.5213 52.0165
CA 42.5487 -37.0935 62.1101
CA 15.1489 -12.9171 45.424
CA 30.0943 -5.33102 45.0761
CA 14.9431 0.720951 16.2598
CA 17.897 5.0077 8.23624
CA 7.39938 -7.04903 64.3068
CA 54.4415 -24.5421 47.8739
CA 8.41858 -18.7425 39.2471
CA 18.2692 -17.4215 44.642
CA 30.1238 -22.4085 59.2007
CA 39.5135 -24.7425 61.2465
CA 17.8644 -38.6073 43.1088
CA 25.7859 -8.94604 46.0477
CA 50.618 -16.9024 55.7581
CA 13.9534 -39.2263 40.2898
CA 3.69178 -18.7527 26.47
CA 37.5017 -9.23993 37.8687
CA 37.242 -41.974 65.1032
CA 10.9121 -16.2636 55.1644
CA 1.85106 -29.0281 54.9419
CA 19.9839 -28.7666 64.0069
CA 9.33628 -19.4535 33.7273
CA 35.8449 -21.9999 68.8749
CA 5.25964 -30.0213 50.7595
CA 28.341 -11.103 55.6332
CA 8.53162 -26.6652 62.4834
CA 33.4968 -5.55906 73.8904
CA 37.9849 -4.43413 39.8089
CA 40.2483 -48.116 61.9515
CA 24.4921 -9.74697 26.0972
CA 19.6163 -1.19957 55.6507
CA 17.1764 -37.3101 52.7285
CA 13.9577 -10.3213 47.7814
CA 3.1443 -25.8691 38.643
CA 29.0037 -8.05215 38.1584
CA 18.0646 -7.07137 37.4171
CA 41.6696 -24.2623 87.0588
CA 27.8308 -16.0564 27.731
CA 14.5635 -14.5731 52.8805
CA 51.1959 -28.3567 75.9645
CA 14.7329 -9.463 41.2811
CA 15.9882 -10.7766 32.2999
CA 38.3864 -22.9952 79.6631
CA 48.5931 -17.0375 70.4347
CA 32.287 -39.2077 47.7468
CA 33.8134 -10.5505 56.5417
CA 19.6947 -9.10235 20.0991
CA 25.4825 -12.7764 51.0075
CA 15.0148 -21.6573 64.3823
CA 28.9906 -11.7394 72.0675
CA 30.7845 -27.4948 66.4897
CA 19.8741 -25.393 38.3788
CA 39.9878 -14.7905 70.6271
CA 2.89703 0.455946 48.0578
CA 30.0446 -13.0756 46.5312
CA 20.3009 -17.22 19.9553
CA 12.5564 -11.9612 25.2617
CA 19.7494 -33.4273 66.2488
CA 33.9432 -14.0836 63.6367
CA 8.11236 -8.03631 61.8565
CA 14.4751 -1.00504 16.7383
CA 14.4617 -19.2284 65.2308
CA 34.6013 -12.8945 66.0922
CA 22.3256 -24.2477 69.2153
CA 37.0568 -7.76882 51.032
CA 31.5974 -33.3786 58.8706
CA 39.3198 -32.3238 85.2611
CA 4.78699 -18.9834 36.7535
CA 5.14563 -19.2153 22.0704
CA 14.2085 -15.4299 31.5617
CA 8.85187 -32.1039 64.2665
CA 10.8887 -14.9135 19.0913
CA 1.83407 -31.94 41.495
CA 38.6792 -22.1188 54.3434
CA 48.1464 -6.69649 67.4803
CA 49.9302 -15.221 67.6594
CA 16.26 4.30585 9.12922
CA 33.6299 -4.38182 41.6983
CA 26.7866 -28.268 50.736
CA 25.6222 -25.1612 73.8108
CA 41.6399 -35.0475 58.6543
CA 17.0803 -5.70038 56.6505
CA 19.8318 -19.435 20.159
CA 34.5397 -21.2975 70.229
CA 44.3686 -25.907 84.2752
CA 29.5575 -34.6626 41.0398
CA 10.8715 3.89676 19.0721
CA 16.8462 -34.5331 48.7508
CA 42.7708 -7.44666 58.1359
CA 40.9936 -26.8648 66.4823
CA 12.7604 -2.29176 56.0244
CA 14.8352 -42.5612 44.2789
CA 21.4375 -31.5885 57.4226
CA 3.75523 -22.562 31.4718
CA 32.5171 -8.53657 44.1584
CA 36.7773 -24.295 53.2742
CA 16.5514 -19.0905 61.3905
CA 20.0734 -41.495 58.626
CA 42.5675 -23.5142 67.4786
CA 24.8397 -30.7614 55.4736
CA 8.04042 -17.5511 42.9945
CA 27.8402 -27.6608 70.8286
CA 16.2549 -9.09148 74.0222
CA 20.2393 -11.8325 43.2545
CA 22.5166 -4.74044 51.7233
CA 20.3059 -4.24877 52.3768
CA -1.81685 -16.073 47.0784
CA 16.8186 -8.5833 34.2255
CA 29.415 -30.5769 42.5903
CA 9.64078 -19.9623 23.0988
CA 8.79228 0.734639 46.576
CA -0.114151 -22.9691 50.5978
CA 50.101 -25.7823 76.2076
CA 29.4266 -25.7984 53.9881
CA 29.7817 -29.36 65.6503
CA 20.8186 -22.0647 37.3795
CA 45.5455 -28.4014 76.0423
CA 41.0819 -12.3758 71.0852
CA 8.12503 -20.1773 53.4478
CA 17.9067 -12.0935 13.803
CA 37.2381 -49.3918 63.5483
CA 51.2547 -22.0545 40.9776
CA 18.7541 -14.4979 51.2283
CA 46.5541 -24.3585 83.6695
CA 27.9901 -28.9156 55.8511
CA 42.2179 -29.7454 51.6913
CA 41.3246 -0.485774 36.6244
CA 38.8932 -19.0646 64.9426
CA 13.9889 -36.3547 38.2414
CA 3.97233 -19.3741 31.3091
CA 8.28185 -13.1558 42.5218
CA 45.3473 -24.0381 64.2464
CA 21.5288 -23.5086 36.3286
CA 21.0604 -19.9895 55.8053
CA 49.9357 -16.5246 72.7322
CA 29.4431 -12.3373 35.9232
CA 41.5661 -25.5648 76.8795
CA 14.9027 -35.0584 42.1835
CA 7.35856 -15.9061 43.7477
CA 40.7051 -10.233 54.4668
CA 12.8668 -12.5521 16.9753
CA 55.2353 -27.5041 47.1529
CA 10.1821 1.29487 47.687
CA 56.7145 -20.1045 50.8014
CA 13.5112 -27.8868 56.649
CA 22.4658 -10.9829 23.7616
CA 9.58517 -1.59547 12.9662
CA 13.4492 -39.1042 45.5444
CA 7.70439 -20.2145 32.852
CA 61.5305 -21.975 42.3651
CA 17.4742 -25.4607 38.5563
CA 33.0479 -26.8265 40.665
CA 28.3968 -21.3957 57.7328
CA 6.88111 -16.3919 58.9944
CA 18.4805 -8.69744 26.3716
CA 30.7774 -0.559929 50.1063
CA 31.8162 -21.9988 59.7521
CA 2.58703 -16.7041 46.5142
CA 10.928 -14.3557 61.3352
CA 14.3846 -36.7422 42.5836
CA 15.6211 -1.97142 12.3703
CA 25.6523 -25.8228 77.4649
CA 4.00365 -17.3059 61.0056
CA 15.2921 -1.95279 67.9954
CA 31.7314 -7.53665 75.9272
CA 23.5442 -29.8506 44.3176
CA 9.92637 -22.59 50.2462
CA 34.0072 0.0919341 50.156
CA 27.5194 -35.1251 47.7436
CA 15.92 -16.3726 18.5111
CA 37.6647 -22.8639 90.0792
CA 47.5803 -7.4532 60.8595
CA 9.68501 -27.4724 37.8931
CA 11.4297 -4.97314 17.6768
CA 8.82034 -19.0485 44.6732
CA 17.2501 -20.8535 19.7671
CA 21.6709 -13.7334 18.2056
CA 14.6985 -19.9256 41.6763
CA 5.40467 -28.0704 31.8208
CA 24.6658 -11.0885 33.1682
CA 16.231 -21.6313 39.4718
CA 39.3348 -35.3311 57.5668
CA 24.0508 -7.5086 62.4949
CA 36.4223 -31.0138 66.4986
CA 38.46 -1.67956 75.8364
CA 24.0475 -18.2178 42.9215
CA 17.8368 -6.60103 30.9058
CA 34.8792 -7.18915 74.4846
CA 22.3214 -11.9149 65.7123
CA -3.49487 -15.8135 44.9186
CA 18.0354 -9.69233 40.1913
CA 14.1273 -4.57711 19.9195
CA 44.4247 -17.0043 68.519
CA 8.86563 -21.9445 24.0658
CA 20.1508 -24.803 71.1217
CA 43.8444 -12.9051 59.465
CA 18.5826 -5.39267 14.2787
CA 30.2499 -10.1165 74.7856
CA 16.6776 -46.3591 45.1441
CA 12.0609 -1.3134 17.7861
CA 29.9436 -19.2463 56.8492
CA 9.65465 -11.6725 46.2102
CA 25.3043 -7.74181 50.5465
CA 53.5811 -21.8985 52.1649
CA 22.6074 -12.0179 52.8766
CA 34.2338 -12.9384 57.0084
CA 8.17656 -18.022 36.9608
CA 32.4828 -7.8426 57.0729
CA 19.3622 -24.941 73.7151
CA 43.3683 -16.5164 60.5496
CA 46.0075 -26.7419 67.4816
CA 20.6638 -39.0667 53.7507
CA 43.9964 -34.9818 58.1111
CA 47.3333 -16.2192 72.1435
CA 25.852 -7.50775 42.9742
CA 45.3584 -17.8195 73.5851
CA 16.819 -0.867773 65.4562
CA 18.7038 -34.6457 40.6549
CA 39.9613 -43.3485 65.4923
CA 6.13284 -16.7251 62.092
CA 34.0012 -10.3117 71.369
CA 11.4193 0.479487 11.3621
CA 8.70052 -35.1229 50.1612
CA 7.41136 -4.27027 57.5522
CA 2.03043 -19.7195 51.1935
CA 18.6938 -15.721 32.251
CA 49.4989 -28.4217 74.2257
CA 23.8551 -33.719 45.8603
CA 6.57489 -26.993 63.5107
CA 33.3921 -1.09342 44.9447
CA 21.3917 -10.5169 53.7147
CA 14.691 1.47221 68.965
CA 37.9981 -42.5696 67.8121
CA 53.54 -17.4344 46.8541
CA 44.7411 -25.1252 66.4175
CA 38.6506 -25.2682 63.6564
CA 27.8402 -33.435 48.3495
CA 38.1014 -36.5276 58.8974
CA 12.424 -4.29279 56.6602
CA 10.3347 -21.1766 54.0878
CA 14.3326 -20.7952 19.2549
CA 31.9924 -31.4436 67.7403
CA 35.3151 -36.0303 39.8726
CA 25.6687 -27.6872 78.6214
CA 6.28339 -18.1225 38.5961
CA 22.4696 -15.5962 67.447
CA 13.0943 5.24995 8.53514
CA 17.3254 -9.58861 25.2557
CA 22.908 -17.4926 23.6027
CA 40.8272 -28.2999 83.2905
CA 43.2094 -28.2781 83.2274
CA 37.5271 1.32093 39.4079
CA 31.6451 -15.2242 70.2525
CA 13.5396 -19.13 58.3013
CA 41.0069 -18.4992 58.014
CA 22.623 -33.3327 43.1183
CA 51.8862 -22.5846 52.8141
CA 6.30407 -23.1164 28.9943
CA 41.5013 -10.236 68.082
CA 19.7751 -21.7422 58.3134
CA 24.8324 -10.7304 69.9043
CA 17.2 -2.39509 55.5309
CA 46.7665 -16.8041 49.4407
CA 28.4717 -13.6363 38.1525
CA 19.7406 -35.8402 47.2788
CA 12.6882 -24.1473 54.8883
CA 45.6303 -29.0348 86.7315
CA 2.50342 -27.0418 56.9624
CA 30.7721 -29.506 50.8301
CA 41.3576 -20.0474 63.2497
CA 9.18477 -15.7546 39.227
CA 18.0776 -20.4583 13.9844
CA 26.0314 -20.5769 77.2707
CA 18.5211 -22.2726 41.9185
CA 34.3741 -12.5236 52.3591
CA 41.1495 -18.9968 53.4508
CA 16.0002 -13.4275 17.4246
CA 32.3714 -19.2957 59.5695
CA 32.9827 -19.1863 69.2252
CA 7.12701 1.26343 49.5732
CA 36.1652 -20.0662 58.0295
CA 20.1628 -27.0284 70.1505
CA 43.247 -16.9869 74.3412
CA 10.7218 -3.93578 22.16
CA 12.4723 -2.22341 45.1019
CA 11.9735 -13.473 63.7397
CA 6.06977 -28.1251 65.1723
CA 51.4732 -17.4909 51.976
CA 22.1245 -23.8326 66.7482
CA 28.7541 -27.5512 54.2732
CA 4.82584 -16.3221 59.606
CA 15.8512 5.32052 63.9961
CA 17.5135 -4.11424 51.4033
CA 44.5741 -25.6078 81.556
CA 11.2326 -18.1737 50.1631
CA 16.951 -6.30228 70.2749
CA 31.7854 -32.6033 47.9758
CA 21.2787 -13.6516 60.175
CA 35.2511 -7.55791 53.5662
CA 30.0448 -5.72076 71.486
CA 27.3499 -31.4082 68.9737
CA 47.1215 -12.9121 61.3655
CA 21.279 -13.1129 51.257
CA 34.7584 -50.3655 70.7344
CA 30.9954 -21.1428 64.8284
CA 17.8533 -26.771 56.1426
CA 8.81941 -29.7552 48.148
CA 2.98056 -32.01 46.6653
CA 23.1756 -30.6506 57.7516
CA 33.1812 -41.8111 61.8249
CA 39.8099 -9.08411 59.5357
CA 42.1665 -13.5022 54.8117
CA 34.7646 -37.1363 51.0435
CA 12.6908 -12.9969 19.3331
CA 14.1589 -5.74022 72.3839
CA 37.7547 -47.1199 66.5771
CA 55.4219 -22.7428 43.4732
CA 2.1251 -29.6109 52.8579
CA 23.6837 -38.0653 42.8903
CA 6.60115 -25.4911 60.6194
CA 26.4552 1.26356 47.226
CA 10.3926 -26.2984 55.3759
CA 23.4315 -19.7276 67.8914
CA 57.8621 -25.2507 52.6462
CA 6.36135 1.58924 51.2999
CA 17.4086 -4.45116 21.7628
CA 16.2982 -13.3925 53.4651
CA 32.4658 -39.6087 51.5352
CA 5.44611 -25.4035 64.4852
CA 11.9341 -16.7722 52.1586
CA 24.0409 -10.8526 41.8352
CA 18.1239 -0.541498 62.4034
CA 45.9362 -15.6165 46.4804
CA 38.5749 -20.0472 92.8488
CA 9.39499 -29.4333 60.4463
CA 31.8223 -40.1488 60.48
CA 56.7934 -25.828 47.6574
CA 35.3505 -24.6627 72.5428
CA 31.2527 -40.9573 62.3892
CA 51.1592 -7.83237 62.5823
CA 29.1828 -8.79237 34.8792
CA 34.6488 -16.0218 56.2895
CA 46.15 -14.7854 53.0264
CA 55.8734 -21.502 39.0881
CA 27.3235 -1.32656 51.0438
CA 13.8434 -17.7208 62.332
CA 18.222 2.92033 63.5885
CA 41.2801 -19.3114 73.3947
CA 22.797 -17.878 59.6196
CA 27.4814 -15.5857 69.7831
CA 41.906 -25.9414 56.0138
CA 10.4148 -23.9408 58.2528
CA 46.1234 -7.56508 62.9661
CA 12.6415 -9.2493 71.391
CA 32.4038 -36.0256 60.0907
CA 29.5 -29.8366 71.8369
CA 23.0884 -38.4906 49.4254
CA 59.7037 -22.7236 37.9913
CA 40.0943 -25.6499 75.172
CA 34.0807 -6.17132 48.6318
CA 9.17586 -35.1129 47.1119
CA 19.7754 -43.0484 44.0583
CA 15.6641 -16.9667 32.1957
CA 38.655 -6.19366 66.3293
CA 34.3566 -3.26419 71.3786
CA 9.20232 -14.1347 17.6299
CA 16.4105 -4.70982 62.091
CA 39.284 -24.0234 67.0863
CA 13.853 -12.7935 28.1991
CA 34.1623 -53.4071 62.9164
CA 30.2361 -26.2584 48.9701
CA 44.712 -3.68311 66.0851
CA 38.1888 -32.0301 88.7309
CA 14.0481 -23.5621 65.4208
CA 61.3217 -23.1201 34.6609
CA 12.2005 -33.8176 49.6036
CA 19.0661 -15.3593 64.5266
CA 59.293 -25.2271 44.548
CA 29.5859 -42.3822 56.718
CA -8.49043 -13.7437 44.2683
CA -2.83874 -32.4392 51.9415
CA 10.0332 -24.5938 66.5122
CA 27.7546 -31.8146 56.4902
CA 9.6787 -13.9631 63.2971
CA 16.326 -19.2887 35.8461
CA 16.0275 -15.9728 12.3391
CA 8.03933 -22.681 30.8126
CA 4.41833 -30.8095 38.1854
CA 27.3694 -9.36706 45.2938
CA 30.6488 -9.72206 56.6529
CA 35.1747 -0.89658 75.671
CA 38.4593 -13.9723 56.1048
CA 21.3234 -37.5724 50.5894
CA 18.6311 -29.0953 52.3
CA 26.1468 -12.4531 44.8643
CA 19.1249 -21.6233 54.1355
CA 38.4983 -11.9925 68.3463
CA 28.3236 -8.93347 55.539
CA 20.3814 -2.9868 50.6267
CA 17.9188 -21.0931 73.1362
CA 22.7837 -21.6252 58.6453
CA 32.6837 -13.1578 61.8528
CA 26.2462 -36.5288 57.0958
CA 25.3971 -13.5399 75.2684
CA 4.91861 -26.8213 59.2099
CA 39.3401 -23.1918 52.9018
CA 12.1227 0.967143 17.4187
CA 35.3218 -22.2372 65.8001
CA 35.4619 -41.9837 62.8159
CA 16.7951 -33.3106 59.0197
CA 34.1857 -53.0785 66.9571
CA 13.7992 -17.4301 52.5822
CA 24.4138 -0.318922 50.3239
CA 13.9217 -7.98123 71.5214
