489

CA -10.8003 -19.7397 37.267
CA 1.98112 -10.0284 86.2854
CA 22.6345 -16.3765 28.585
CA -21.4916 -11.305 59.5123
CA 1.50261 -13.2159 61.7592
CA 43.13 -10.1835 60.0324
CA 17.9397 14.1183 49.5467
CA -8.27985 -7.65776 51.6414
CA 6.98072 11.0234 68.7481
CA 10.7603 -1.1204 48.335
CA 5.5053 -30.1642 27.8442
CA -4.53404 10.3735 27.5479
CA 12.7894 -3.24683 47.406
CA -15.6808 -36.5209 58.8659
CA -10.5621 -10.0323 82.3492
CA -13.7494 -24.1183 45.1854
CA -11.7815 -30.1169 55.761
CA -18.0846 -23.4026 46.5355
CA 11.2324 -8.78467 56.6201
CA 40.5407 -10.792 59.8797
CA 39.3159 -13.6212 61.4376
CA -17.6414 -32.1932 51.5497
CA 22.5547 -11.8669 64.4678
CA 9.84551 4.56674 76.2655
CA 12.54 12.1387 83.6965
CA 17.9256 2.6701 51.0061
CA 6.37572 7.41305 79.3906
CA -30.5572 14.5668 55.9055
CA 2.48737 -7.00806 79.4988
CA 11.8159 17.4017 87.6516
CA 3.16146 -36.1026 36.7222
CA 17.971 6.19879 47.703
CA -5.13404 -26.3724 58.1576
CA 1.88892 -3.29424 51.4832
CA -0.118277 -6.91631 65.5176
CA 9.41443 -7.31024 55.1033
CA 13.4599 -2.79389 75.1141
CA 4.44442 11.9921 70.8804
CA 21.901 -16.1417 19.8965
CA 0.0365746 -11.0162 40.7308
CA 9.85662 -1.53856 69.8018
CA 36.4755 -13.011 56.6101
CA 2.11912 -13.8034 41.683
CA 18.5204 -29.4431 64.1878
CA 3.09047 -30.5969 28.7747
CA 9.1282 -29.475 27.5943
CA 34.0733 -15.5717 51.5812
CA 22.6546 -14.4195 55.9188
CA -18.6397 4.34096 72.1965
CA 23.351 -14.1921 20.8274
CA 32.2781 -13.5602 54.7631
CA -7.27609 -6.02571 54.4453
CA 10.1249 -8.77137 81.0558
CA 21.9217 -2.17755 53.5572
CA -11.123 -25.2585 51.6043
CA 3.23737 -31.2369 33.41
CA 19.9599 -12.3285 59.2176
CA 4.15884 7.65088 66.6696
CA -0.0513335 32.543 49.444
CA -29.1477 5.92814 47.2197
CA 8.56392 10.8639 84.7309
CA 13.3588 6.23804 75.6702
CA -38.5807 7.18083 44.4387
CA -0.894467 -6.02131 67.1848
CA 26.2722 -28.2823 68.527
CA -11.5322 -10.4608 41.7076
CA -14.8143 -6.24641 46.1993
CA 9.27912 -9.1908 67.7543
CA 21.2316 7.22838 63.3017
CA 3.02003 32.3255 67.0925
CA 13.5769 13.6038 80.2898
CA 26.737 -3.48435 65.3123
CA 18.29 -15.5172 32.1188
CA 9.18387 -4.09732 75.3297
CA -24.4388 -0.665503 58.5937
CA -21.527 0.371896 42.8729
CA 3.97905 -37.7655 45.0979
CA 7.01783 0.299872 72.2206
CA -15.9584 -34.6769 47.5331
CA 9.0005 -13.1927 51.1495
CA -1.68268 7.77479 67.8048
CA 18.7592 -21.3419 54.2815
CA 28.8415 -18.2356 52.2227
CA 2.8083 -11.5558 67.5195
CA -11.4881 -32.6853 55.3887
CA 29.3167 6.522 55.3611
CA 23.3369 -17.3379 53.2062
CA -29.9248 8.1198 44.3631
CA -13.8899 2.79333 67.1721
CA 2.5382 29.6901 44.7814
CA -34.4197 8.19942 43.7239
CA -13.7664 -36.781 52.2606
CA 11.7639 -10.1076 47.0364
CA 19.4848 -24.3148 50.9496
CA 35.7269 -13.1831 59.809
CA 38.0735 -7.17222 58.2081
CA -14.6115 -20.3328 54.6535
CA -3.77162 -1.4269 81.6224
CA 2.12663 -14.057 51.0349
CA -12.216 -18.6473 52.6658
CA 21.1403 -9.75677 58.777
CA 13.8324 -3.16918 43.2612
CA -3.43341 -0.360753 48.6731
CA 16.4944 -12.6685 64.3592
CA 30.7494 5.77412 57.4372
CA 33.9861 6.54931 31.3377
CA -11.7274 5.70146 72.2887
CA -14.351 -34.9439 56.797
CA -1.5442 10.5818 65.7052
CA 14.8741 -7.66327 79.7179
CA -0.937791 21.3645 64.1356
CA -10.1766 -34.04 60.622
CA 18.6485 -0.576396 69.7365
CA 6.79914 -14.9179 43.9494
CA -16.9999 -10.2993 56.14
CA 35.3868 -11.6481 55.5962
CA -5.83487 -3.38242 63.0866
CA 30.0008 -7.22135 65.8592
CA -8.68826 19.6442 35.6733
CA 21.6743 -14.7715 57.4843
CA -36.3186 8.85982 43.1131
CA -5.86558 4.66718 48.6136
CA -6.1887 -2.51358 55.6825
CA 5.68646 -9.00276 74.7168
CA -2.53303 -18.5352 52.81
CA 23.8908 8.2249 61.933
CA 19.5815 11.9681 36.8047
CA -4.6827 0.454753 51.898
CA 13.5231 -24.6471 62.3405
CA 5.74685 27.1934 67.4282
CA 16.5659 7.8894 94.4821
CA 13.7016 -3.23201 67.927
CA 27.0566 -14.5088 69.247
CA -7.83664 26.451 27.1109
CA -28.6481 13.6923 71.9395
CA 24.9339 -14.2795 60.7236
CA 4.77955 18.4466 73.8246
CA 3.94204 25.7926 72.7891
CA -2.97129 -8.08755 37.7723
CA 9.38591 -1.89942 78.4399
CA 5.20404 -5.86957 74.3834
CA 8.95556 -16.2043 47.4878
CA 1.78561 -7.60121 69.0129
CA 17.3662 -17.8671 19.6691
CA 14.7946 5.54611 64.0524
CA -6.76814 -2.26022 51.0319
CA -0.0608592 6.77221 67.5006
CA 23.927 -11.3049 58.8489
CA 12.0168 16.3573 89.307
CA 6.46867 17.4191 70.1276
CA -1.33051 -11.1425 51.8679
CA 1.54148 30.319 71.7253
CA -10.7081 -36.9478 59.76
CA 23.718 -11.3302 70.0072
CA 16.7613 13.4917 36.4734
CA 17.551 -7.67049 66.0188
CA 0.485911 28.5843 57.9601
CA 30.0984 -17.2765 47.3078
CA 1.12546 -16.9241 49.348
CA -5.82385 -21.8245 37.624
CA -9.88178 -31.465 59.2865
CA 24.3067 -33.166 58.6354
CA 16.0117 -5.31089 69.3994
CA 6.61074 -29.9056 22.0506
CA 2.79256 18.1427 75.8626
CA -7.5957 23.3555 32.6366
CA 23.955 -22.4029 54.5085
CA 21.5954 -1.79919 67.5695
CA -5.77686 -27.084 49.0012
CA -1.31346 -22.9126 35.9582
CA 10.1502 1.20786 78.2851
CA 44.5208 -11.027 60.9646
CA 21.5344 -12.7757 36.049
CA -6.53955 24.8739 26.8686
CA -2.70534 -27.1314 28.2041
CA -20.7641 -12.7112 55.0936
CA 23.8834 2.88983 53.8045
CA 19.3489 -12.7355 21.3799
CA -18.9231 -6.36254 59.3731
CA -18.0801 -5.62621 54.5955
CA -0.876594 -16.709 63.876
CA 2.33242 7.20922 21.7059
CA -23.7579 3.46124 59.2001
CA -8.99155 -29.7191 57.6865
CA 2.94727 -10.6443 64.6721
CA 12.5383 -17.5204 45.6492
CA -13.9207 1.60071 42.0584
CA 21.596 -10.6305 41.792
CA -8.09018 -26.3998 46.7867
CA -4.28023 7.51333 50.0056
CA 2.27103 -14.6864 53.4769
CA 13.6805 0.519967 58.4977
CA -17.2849 -6.63323 44.7146
CA -7.55868 28.1922 25.5557
CA 22.4402 -3.39091 46.9724
CA 18.5793 -13.4689 55.0004
CA -0.854995 1.50321 44.1144
CA 22.3764 -27.2083 70.5755
CA -1.01581 9.4244 68.252
CA -9.42627 -37.4004 57.3208
CA 17.4701 -11.3698 45.4367
CA 5.26222 19.0982 34.3428
CA -7.55491 -8.43408 57.8617
CA -11.3771 3.71809 78.7762
CA 23.1083 -17.3368 60.2266
CA 8.84317 0.771667 100.658
CA -0.629613 -30.7711 34.421
CA 6.04778 9.58923 69.3624
CA -33.9715 12.5106 55.5372
CA 13.0475 13.8433 88.2611
CA -0.0586673 -6.96866 38.5909
CA 11.5575 -6.62382 54.8456
CA 14.9097 -4.80665 67.2485
CA 7.02964 18.3476 31.1458
CA -1.21747 -4.32702 68.4619
CA 10.673 8.8916 78.7145
CA 29.158 9.98335 27.6219
CA 1.56306 -16.0458 45.236
CA -0.728269 -23.3234 41.9748
CA 8.95083 -1.72131 75.1262
CA 1.47518 -7.11329 83.0935
CA -1.46473 -2.89359 49.9454
CA 4.75427 22.6096 47.9532
CA 8.94933 24.9179 44.4873
CA -27.8758 -1.32255 49.3507
CA 42.209 -8.22036 62.2214
CA 4.52082 -7.20378 65.6297
CA -1.85617 -12.2784 45.7523
CA -1.40247 30.4382 69.2548
CA -13.8191 4.26645 69.9911
CA 4.55943 23.4801 69.1116
CA 1.96548 -37.7789 35.9315
CA -0.369814 -32.5345 41.3574
CA 5.86901 -15.7267 68.3644
CA -34.8761 7.68876 47.9938
CA 4.2695 -18.7849 46.5301
CA 11.7133 -2.16037 68.0868
CA 4.82251 -14.4538 65.1565
CA 10.895 10.0196 81.3431
CA -17.2013 -11.3716 59.4165
CA 1.88587 27.5685 63.7211
CA 0.0440687 -4.82796 76.9242
CA 10.1338 -9.56365 55.0695
CA -14.7964 -7.9501 49.9564
CA -23.0957 -2.60674 45.7469
CA -16.6772 -7.79553 40.2143
CA -0.94624 -7.98508 75.1013
CA 18.7934 7.13403 42.1689
CA 19.6069 -19.7158 28.7075
CA -0.321818 6.92445 71.5296
CA 19.602 -13.9207 19.6213
CA 5.09164 -4.90263 55.8093
CA 20.8307 -28.213 69.8802
CA 0.482028 26.6689 48.8333
CA -13.3355 0.148693 68.0951
CA 5.16444 -3.20583 58.6445
CA -9.48094 6.88608 69.4268
CA -11.2152 -31.1745 60.5465
CA -15.2679 5.78375 70.2777
CA 10.3934 11.9607 82.2774
CA 21.1947 -14.917 33.3417
CA 26.6807 5.25898 61.4743
CA 18.5376 -4.29861 72.0029
CA -7.83039 -4.78871 50.3098
CA 6.49103 -1.61054 74.8122
CA 0.407568 29.6168 49.7496
CA 14.0662 -3.67145 73.0272
CA 19.5827 -18.0737 37.3318
CA 7.46684 -7.39884 61.0415
CA 14.2873 15.5199 88.7624
CA 20.1214 -15.8206 27.5761
CA 0.333281 -8.94483 83.8779
CA 23.6206 -18.8899 57.7315
CA 29.6826 -14.2722 63.5979
CA 28.2464 -5.98074 60.1825
CA -37.9132 17.2528 50.1986
CA 11.3968 -6.06489 79.0107
CA -9.27076 -22.047 38.8084
CA 6.60976 13.4257 91.7784
CA 6.03047 7.3198 69.2414
CA -8.48893 -0.937677 61.0443
CA 0.426972 28.8843 71.2717
CA 21.4658 5.82785 36.6964
CA -2.96051 2.20847 44.6167
CA 8.43803 -7.29507 67.872
CA -18.8709 2.06419 59.4527
CA -3.77421 -25.3597 49.8267
CA 11.2787 13.2535 86.8036
CA 3.09501 -32.9307 38.7856
CA 10.6631 8.67532 89.4391
CA 3.68645 -31.2694 37.0679
CA -1.17617 -10.897 67.4257
CA -4.05595 -7.09871 57.0183
CA 8.20534 -13.1585 52.7654
CA 20.3537 8.35613 65.0955
CA 7.65277 9.3453 77.0549
CA 11.1121 -0.757098 44.0097
CA 10.7066 -13.9302 62.6458
CA 13.1849 -19.7656 45.8296
CA -6.19671 -18.7819 36.6656
CA 22.103 9.45073 58.6514
CA 19.9029 -22.6154 57.8297
CA -36.3924 9.16982 52.5265
CA 11.0313 -5.82672 64.4469
CA -10.1352 -32.2545 57.2479
CA 4.11611 26.5629 48.3988
CA -12.4419 -34.1929 55.8968
CA 18.3648 -16.1026 54.4063
CA 3.71987 3.2755 82.4884
CA 8.94392 12.9898 89.6156
CA 13.753 14.0484 84.1875
CA -2.5261 -18.8853 62.7971
CA 8.94564 20.8089 70.3866
CA -9.40617 -10.5974 60.1336
CA -17.0323 -8.13993 57.8687
CA -2.72071 27.8491 67.6437
CA 8.48671 -2.83058 59.7377
CA 20.4169 -15.0324 51.9259
CA 3.37833 -35.0227 40.9248
CA -0.204136 26.6881 46.1624
CA -27.937 -2.857 47.7283
CA -14.5027 -12.7633 62.4561
CA 18.7065 -0.793272 44.0816
CA -4.36525 7.70573 69.7019
CA -27.7621 1.21761 49.616
CA 2.4534 -24.0588 37.8671
CA 3.28024 6.73045 23.7792
CA -17.8373 -36.9117 49.3792
CA 24.1091 -17.561 50.9448
CA -33.6712 8.31984 51.0927
CA -9.04681 -36.0592 59.7204
CA 20.6414 13.3262 50.1911
CA 8.21764 -8.49137 49.7358
CA 20.4283 15.5582 53.1341
CA -1.73566 -4.91772 50.3386
CA -15.6722 5.13821 73.6314
CA 21.0667 5.02825 65.0026
CA -12.5851 2.57805 74.6032
CA 16.0223 -1.99413 70.8974
CA 6.03553 19.1334 70.5776
CA -10.8286 -31.3414 48.5511
CA 13.5059 -19.8954 57.91
CA 16.9263 -10.0339 21.1077
CA -13.7781 -9.42962 53.4642
CA -5.5001 -24.4343 38.8866
CA 22.4212 8.74246 38.029
CA 25.7341 -9.52364 68.3918
CA 24.7607 -5.00484 52.1014
CA 2.36029 -23.3506 33.6095
CA 1.81494 -7.44337 70.9572
CA 22.0516 -22.862 68.4642
CA -5.45778 -4.48324 56.5428
CA 19.7982 -2.41992 70.0589
CA -17.096 2.54833 67.6252
CA -5.04657 31.4376 30.005
CA -37.9526 16.8567 52.2105
CA 14.0311 -0.866391 48.6284
CA 16.8002 -9.7676 61.495
CA -4.42281 -19.258 56.1813
CA 3.89664 -30.4002 38.7041
CA 14.4989 -22.2115 60.8238
CA -5.08761 32.8851 27.5341
CA -1.30962 -8.22253 34.9536
CA 17.1635 -11.9758 58.8874
CA -6.47909 9.42893 27.9236
CA -5.04621 -26.9242 53.5791
CA 17.4411 -10.1128 54.459
CA -6.2608 33.708 30.4907
CA 12.5711 -2.18617 77.695
CA 22.0519 -14.5154 26.8093
CA 22.9805 5.92507 58.7274
CA -10.9467 -23.1144 38.9242
CA 28.8316 6.30946 46.4414
CA 5.2316 -8.97458 61.1287
CA 27.2728 9.14257 56.7329
CA 11.1975 -6.09743 47.47
CA -11.3067 -1.24034 65.7521
CA 14.3032 -24.4861 59.1225
CA 25.3985 -7.51839 55.958
CA -34.476 10.3678 51.8716
CA 6.64055 -3.02614 66.4862
CA 5.11364 -35.198 33.2681
CA 14.4344 -6.89066 45.0602
CA 32.1679 11.2251 28.8407
CA -18.0481 -4.24548 42.5224
CA 22.7263 -14.2092 61.8488
CA 2.5101 7.13492 64.5443
CA 0.456542 -15.3736 61.9066
CA -10.2579 4.21948 75.8965
CA 7.87779 9.75265 73.0309
CA 17.9552 -17.2743 58.0382
CA 2.96547 34.7876 70.4389
CA 0.412419 6.4707 22.3654
CA 7.52886 -6.7444 73.072
CA 23.236 13.2341 51.765
CA 4.78342 -29.176 32.1554
CA 16.9994 -18.82 28.9243
CA 10.9515 -3.86232 64.9416
CA 1.73226 7.67203 69.4279
CA 2.06883 -32.2997 37.2093
CA 32.0921 4.66599 29.9044
CA 21.1619 -16.0058 34.9796
CA 10.794 0.229327 81.0601
CA 14.4564 -16.0584 54.1667
CA -12.0893 19.7293 29.1632
CA -6.23582 -21.6614 55.1629
CA 4.82747 -28.7378 37.3401
CA 21.2111 -10.0496 40.0057
CA 16.2114 1.35679 50.0938
CA -7.11589 -3.38216 58.1907
CA 0.745355 9.44718 73.0059
CA 37.3608 -9.28034 57.709
CA 5.39652 -0.5536 76.7957
CA -23.5331 -27.0216 24.7013
CA 21.7148 -15.5529 59.8702
CA 30.1932 -18.3396 50.7221
CA 22.0779 4.03369 62.9294
CA 8.91092 -3.78487 80.9799
CA -8.5938 -26.3431 56.3647
CA 3.57259 -32.8763 24.9841
CA 16.8425 -25.0557 63.3205
CA 22.9456 13.7368 55.5766
CA 14.4243 -3.95266 71.2487
CA -11.703 -24.3834 43.2352
CA -13.0233 -23.4646 39.289
CA -19.1816 -5.52686 43.1655
CA -0.810858 -20.5985 65.6708
CA -6.34088 -19.8503 52.6653
CA 10.5401 -7.17384 67.4997
CA -22.8707 -4.69486 61.9341
CA 45.3046 -11.1314 65.6715
CA -8.5847 -35.8186 50.0066
CA 1.2851 -29.6325 26.4656
CA 1.59772 29.8581 67.4604
CA -12.4047 -28.0613 41.2597
CA 21.8083 -1.28187 62.0024
CA -35.9246 14.2879 50.6367
CA 6.96022 -17.1247 46.031
CA 19.2224 -34.639 58.6873
CA 14.63 -22.097 55.8654
CA 15.2698 -16.2178 60.5428
CA -23.3144 -0.0624022 60.5376
CA 2.50766 26.1829 65.2339
CA -0.881973 29.2036 64.4359
CA 6.3105 -3.85039 75.3394
CA -19.5615 -4.16034 50.1684
CA -14.719 -22.5604 37.6365
CA 11.1112 -3.85114 67.6297
CA -3.64638 -0.292329 44.8708
CA 1.92382 9.70569 70.5608
CA -5.85922 0.393809 44.7262
CA -5.91165 -9.82062 45.3995
CA 25.719 -0.26579 61.122
CA -8.80652 -32.1564 51.4703
CA -14.6125 0.552671 76.4149
CA -17.797 -2.4501 48.3746
CA -12.3609 -35.5398 59.5493
CA -2.35773 -8.7015 39.4433
CA 25.949 -31.3996 63.1208
CA 10.775 6.48675 77.4038
CA 4.46375 -5.90734 51.4676
CA 11.4912 -11.364 54.6911
CA -13.4205 -23.7259 53.9875
CA 21.3554 -3.96132 51.7972
CA 4.23296 15.9352 71.8781
CA 32.7837 -3.23079 58.3311
CA -21.5201 -1.30343 58.9555
CA 28.1613 -3.1674 59.2948
CA -1.48713 -3.58955 79.8226
CA -10.9363 -4.74128 50.2356
CA 6.16359 -12.0946 49.6278
CA -19.3259 -15.3323 58.3708
CA -5.89186 -23.4025 35.7276
CA 28.7771 -8.05357 54.4488
CA 20.6505 -17.4458 29.4025
CA 13.2754 7.04891 80.7069
CA -10.3696 -36.1898 55.7349
CA 10.647 -2.74714 59.6825
CA 5.36149 -11.7239 68.8828
CA 5.69848 20.7282 76.7538
CA 8.63724 -3.28626 77.1288
CA 12.6481 6.01843 61.3242
CA -21.4812 -0.807891 61.0075
CA -13.1905 -8.22229 52.0985
CA -9.63388 5.41258 73.6802
CA 23.0864 -17.903 37.866
CA 5.2465 -6.24693 57.1981
CA 14.0319 -9.64253 50.2316
CA -1.63783 -23.0821 28.6489
