489

CA 33.5094 -15.8909 67.6123
CA 46.3997 -24.8038 81.9606
CA 18.1917 -6.45943 18.1308
CA 14.1664 -29.479 56.9055
CA 25.8464 -10.5114 56.3212
CA 16.8517 -4.68695 51.0101
CA 24.1173 -20.7959 43.1206
CA 52.9268 -13.5331 48.6011
CA 39.7135 -30.7269 54.6131
CA 11.3333 -7.96726 72.1782
CA 14.1446 -36.7557 34.7917
CA 10.4345 -15.2259 50.6663
CA 33.3135 -4.14074 34.9252
CA 2.51054 -32.9231 53.903
CA 26.2604 -13.9324 49.3951
CA 15.2938 -26.8621 53.6714
CA 18.301 -7.19274 10.4124
CA 31.8121 4.06949 46.4059
CA 38.5375 -26.7803 56.4817
CA 41.4446 -28.9586 88.1967
CA 18.8218 -5.4109 63.4265
CA 24.4462 -5.95938 61.0704
CA 45.9416 -22.7501 68.9484
CA 23.0083 -11.7283 58.6796
CA 17.406 -24.8953 73.6084
CA 7.74578 -1.58033 13.6236
CA 18.3928 -7.87414 61.02
CA 49.6448 -18.7062 51.0716
CA 12.8536 -22.7089 20.0976
CA 11.2508 -37.8701 33.7424
CA 11.9684 -12.3144 71.7937
CA 20.0996 -25.1676 58.736
CA 36.7534 -38.4902 57.9421
CA 20.116 -22.9846 73.2425
CA 28.9715 -8.46962 61.7486
CA 14.1713 -6.84268 47.1431
CA 21.3 -8.62822 23.6988
CA 26.6525 -25.2878 65.9706
CA 7.30975 -19.7594 47.1948
CA 29.9844 -7.36305 56.8906
CA 24.033 11.0206 60.0426
CA 30.9883 -35.1071 41.7563
CA 22.0003 -11.8577 22.6271
CA 1.6998 -32.5793 56.8375
CA 15.0145 -20.6525 46.9636
CA 23.5019 -26.7438 80.3849
CA 36.7533 -25.9016 74.6991
CA 15.7276 -4.44074 47.6547
CA 33.2022 -33.8363 35.3877
CA 31.6261 -29.9288 50.017
CA 49.9748 -20.8262 64.8862
CA 39.5049 -24.8005 42.4065
CA 56.4965 -18.5928 43.7655
CA 25.2884 -40.6145 53.5111
CA 16.0775 -20.2105 85.4934
CA 19.7821 -19.487 77.4372
CA 16.0029 -24.0473 40.5283
CA 47.5017 -8.89644 67.0674
CA 35.7059 -30.2162 38.8578
CA 26.8972 -19.7025 24.9567
CA 12.9827 -1.50561 10.6939
CA 45.0204 -12.7159 55.8156
CA 18.7627 3.19737 6.80354
CA 21.2845 -23.1663 76.8524
CA 5.89902 -17.8427 43.1201
CA 33.4093 -49.6498 67.1383
CA 37.1446 -31.0387 49.1145
CA 25.1985 -11.674 42.9949
CA 46.6229 -29.3506 82.8087
CA 16.0625 -20.2022 16.5689
CA 20.4776 -34.7399 40.2498
CA 44.3147 -8.14354 64.5025
CA 48.5361 -19.6666 65.6796
CA 18.494 -1.62078 43.3508
CA 39.4175 -25.8003 90.9189
CA 17.6443 -19.8429 26.2823
CA 15.1489 -12.9171 45.424
CA 28.1044 -28.282 80.1362
CA 49.9841 -13.1542 45.294
CA 17.897 5.0077 8.23624
CA 35.1624 -27.0156 61.8578
CA 39.4222 -7.75231 65.6867
CA 7.17323 -5.99559 12.5683
CA 15.4429 -22.3195 19.5117
CA 35.1796 -21.4311 73.7548
CA 29.8334 -4.82604 37.9281
CA 15.2016 -30.9017 44.2762
CA 11.0901 -13.745 70.9101
CA 40.3544 -31.1996 63.4838
CA 32.8018 -10.9871 54.2448
CA 14.9139 -10.0261 70.9402
CA 6.23756 -15.639 62.8549
CA 28.5432 -23.1801 58.0097
CA 20.6018 -32.8402 82.1679
CA 24.3675 -31.7512 81.9792
CA 19.9839 -28.7666 64.0069
CA 24.9355 -38.0056 59.8053
CA 41.5703 -26.0935 90.5049
CA 7.20598 -24.2141 55.2717
CA 16.2582 -26.0386 39.7099
CA 35.9578 0.0456508 43.0491
CA 18.8889 -26.9868 57.0276
CA 40.5691 -32.126 55.5495
CA 25.6171 -26.6539 63.3866
CA 2.9145 -17.8434 39.3638
CA 17.4027 -2.3189 47.8976
CA 18.0002 8.54337 4.14341
CA 47.0042 -10.8195 50.9194
CA 16.0098 -24.6179 87.9553
CA 13.1879 -12.723 35.8063
CA 34.4266 -0.601903 44.1599
CA 9.79189 -12.643 61.5521
CA 24.7393 -44.9993 46.0075
CA 3.14086 -22.6125 55.7524
CA 51.1959 -28.3567 75.9645
CA 36.802 -11.1744 68.8213
CA 49.1275 -11.7964 60.35
CA 18.4147 -18.4847 28.3029
CA 9.90366 -13.7402 55.2284
CA 32.287 -39.2077 47.7468
CA 40.5465 -5.5868 65.2781
CA 55.3401 -29.2756 75.4133
CA 25.4825 -12.7764 51.0075
CA 35.8874 -27.3374 64.6041
CA 47.1928 -32.0333 82.5965
CA 35.7401 -45.3241 65.0271
CA 31.0379 -23.3981 43.7357
CA 17.0545 -26.0525 86.6505
CA 41.0773 -32.9888 85.427
CA 26.2659 -19.6291 61.2864
CA 37.7842 -20.3058 47.3025
CA 37.4753 -22.9031 53.1605
CA 51.5946 -22.5327 50.0768
CA 38.5556 -28.473 78.2986
CA 37.9261 -43.7398 64.0721
CA 14.4751 -1.00504 16.7383
CA 19.4764 -21.383 17.1791
CA 22.5463 -33.3253 87.0329
CA 17.7335 -10.9779 64.8335
CA 23.2025 -27.7981 60.4088
CA 38.6338 -22.1104 49.7786
CA 23.8043 -17.0949 20.9985
CA 23.4317 7.18444 58.543
CA 51.8902 -17.1401 42.6702
CA 33.095 -27.151 68.2591
CA 5.77584 -26.894 33.1619
CA 41.1648 -14.7324 73.7038
CA 17.0311 -15.3702 44.0897
CA 38.6792 -22.1188 54.3434
CA 33.6371 -7.74639 60.029
CA 15.6351 -22.0756 85.177
CA 45.9856 -24.0822 67.3886
CA 37.6222 -22.6304 41.7495
CA 29.0043 -24.1114 45.1187
CA 17.947 -36.257 36.8812
CA 7.35844 -4.01386 14.0527
CA 43.9011 -23.6014 82.8124
CA 12.9602 -33.5807 36.7187
CA 20.7758 -8.49105 58.6419
CA 41.685 -27.6885 44.3434
CA 6.95481 -8.78497 14.4691
CA 10.8715 3.89676 19.0721
CA 32.2273 -26.3457 66.8953
CA 30.3581 -21.831 57.9925
CA 50.0765 -14.658 56.2087
CA 12.1884 -4.69219 68.9178
CA 7.5401 3.67809 53.4323
CA 24.4986 -29.25 55.2282
CA 27.4092 -16.8143 61.1816
CA 40.1404 -30.2626 61.1555
CA 22.8248 -36.1825 86.253
CA 11.843 -3.19678 17.1773
CA 40.8035 -22.9706 78.657
CA 7.71928 -24.3204 48.8726
CA 22.8243 -19.3327 22.7386
CA 16.6182 -30.782 55.0674
CA 47.0286 -14.0133 58.221
CA 20.5641 -30.7093 44.4035
CA 31.5557 -40.2369 60.7303
CA 32.4453 -1.48694 50.4041
CA 9.3317 -12.3011 40.7362
CA 21.8778 -7.0193 65.2803
CA 37.909 -38.5817 60.0743
CA 38.2798 -24.9821 55.3088
CA 55.1654 -25.9738 60.7258
CA 14.1384 -35.2304 53.4438
CA 6.67004 -8.10329 17.2478
CA 50.101 -25.7823 76.2076
CA 27.0353 -22.0641 40.2487
CA 48.4924 -21.0398 56.2473
CA 20.8186 -22.0647 37.3795
CA 35.0632 -38.6287 87.2155
CA 20.049 -11.7987 33.3683
CA 11.2949 -19.7564 50.5667
CA 17.9067 -12.0935 13.803
CA 22.5925 -26.5088 82.6039
CA 21.0565 -17.3738 51.0573
CA 10.3459 -20.5562 48.841
CA 41.6964 -10.4661 67.5468
CA 39.53 -17.1162 69.8385
CA 25.7682 -30.1052 75.9197
CA 13.9587 -31.9753 48.6897
CA 52.0576 -22.0882 53.6466
CA 8.31676 -30.3452 66.8645
CA 10.8347 -32.6325 48.6901
CA 29.924 -3.75726 43.358
CA 48.3419 -9.0704 61.751
CA 38.4167 -11.8619 50.961
CA 35.4346 -25.5741 43.9633
CA 6.85817 -17.2039 40.1459
CA 18.7254 -9.19197 43.4708
CA 41.6353 -17.8913 74.691
CA 49.4154 -19.899 53.1631
CA 15.095 -19.3849 42.985
CA 37.9901 -30.0116 42.0191
CA 12.8668 -12.5521 16.9753
CA 15.7948 -7.72563 60.0197
CA 27.6597 -5.83031 58.2123
CA 13.517 -12.9923 67.9277
CA 17.5541 -20.7364 54.5304
CA 48.9098 -11.6125 55.534
CA 22.3701 -22.798 79.4364
CA 18.3034 -0.103603 61.1934
CA 27.8998 -9.5683 45.7747
CA 15.599 -9.37553 65.5284
CA 41.0767 -24.4273 53.5561
CA 33.0479 -26.8265 40.665
CA 28.3968 -21.3957 57.7328
CA 34.6626 -7.91457 67.1448
CA 28.7999 -23.6815 62.3641
CA 28.4529 -34.9939 61.2497
CA 3.85765 -19.711 46.8005
CA 2.58703 -16.7041 46.5142
CA 10.2632 -0.445486 10.2826
CA 27.7996 -23.9262 60.5389
CA 8.84714 -3.03231 56.4735
CA 31.2847 -16.9463 54.4091
CA 24.3295 -3.80962 39.2253
CA 30.8493 -21.0298 55.2336
CA 34.4659 -34.5501 39.3208
CA 12.2048 -31.6357 55.972
CA 19.2578 -12.4086 42.396
CA 18.1927 -17.0295 43.5513
CA 25.5099 -34.558 54.2223
CA 15.92 -16.3726 18.5111
CA 35.9163 -19.6132 76.6538
CA 33.1576 -17.4438 70.6034
CA 50.3995 -25.9799 67.4484
CA 11.4297 -4.97314 17.6768
CA 19.1334 -9.7965 13.5756
CA 17.2501 -20.8535 19.7671
CA 21.6709 -13.7334 18.2056
CA 22.8473 -24.0103 64.0965
CA 17.9658 -0.36007 45.5449
CA 34.7128 -8.12429 72.2385
CA 16.231 -21.6313 39.4718
CA 39.1022 -21.2682 52.461
CA 24.0508 -7.5086 62.4949
CA 19.3763 -18.1549 55.3015
CA 24.3848 -23.5379 58.6904
CA 11.6405 -17.1781 39.5131
CA 34.3572 -12.9669 59.9784
CA 40.0665 -26.812 87.7232
CA 26.2858 -6.18922 55.6751
CA 36.6269 -11.8499 74.7086
CA 35.3389 -11.1782 55.1804
CA 38.6103 -18.489 63.3022
CA 10.158 -31.4941 54.4976
CA -1.98722 -24.9164 54.0566
CA 23.7751 -30.4251 43.4028
CA 32.7177 -7.49243 34.0709
CA 18.5826 -5.39267 14.2787
CA 29.5913 -17.4957 45.8581
CA 16.6776 -46.3591 45.1441
CA 13.9631 -23.5107 17.9975
CA 36.9437 -40.5309 60.8177
CA 47.6763 -15.3139 61.3042
CA 16.4603 -19.0699 44.5696
CA 47.2876 -9.8131 68.8206
CA 49.4181 -23.0707 68.6747
CA 26.4972 -28.3652 55.9782
CA 25.0741 -4.10857 52.4893
CA 17.2239 -22.7595 69.4783
CA 6.16017 -25.5738 58.5347
CA 43.3683 -16.5164 60.5496
CA 27.7573 -33.4666 44.2037
CA 5.07565 -21.906 58.4183
CA 26.2691 -9.22862 62.7081
CA 17.6273 -2.47849 67.4096
CA 21.5956 -19.1351 28.0022
CA 36.1646 -30.2052 36.1245
CA 36.3397 -16.6747 62.7087
CA 9.7335 -28.0067 65.8561
CA 35.6327 -23.5152 59.602
CA 15.5013 -25.5262 77.8063
CA 32.8433 -35.0451 62.6332
CA 11.4193 0.479487 11.3621
CA 40.8474 -22.0518 49.2329
CA 35.2057 -12.3068 63.4457
CA 15.7192 -32.2604 37.5521
CA 8.28034 -14.0915 40.2982
CA 44.7906 -16.6592 71.7008
CA 29.7681 -6.52674 46.4305
CA 35.4689 0.36987 54.505
CA 13.8957 -14.0472 55.2334
CA 42.1175 -19.4746 69.871
CA 20.8389 -17.9639 61.4375
CA 3.84642 -26.653 47.3599
CA 8.22232 -6.72959 56.2139
CA 8.46239 -27.9887 50.2806
CA 38.6506 -25.2682 63.6564
CA 44.5575 -12.4169 59.9242
CA 49.5964 -11.1445 45.3844
CA 30.5287 -32.7508 58.4381
CA 24.6862 -29.804 83.6475
CA 14.3326 -20.7952 19.2549
CA 19.8064 -24.9111 67.2013
CA 12.4655 -10.5595 68.9595
CA 26.0598 -20.7964 76.5325
CA 31.4003 -30.1497 55.0459
CA 32.9413 -32.182 65.9798
CA 13.0943 5.24995 8.53514
CA 18.7935 -41.6571 47.2401
CA 7.7541 -12.3921 19.8558
CA 29.0261 -23.7492 38.2023
CA 22.3934 -15.9232 45.0175
CA 10.6653 -7.73606 56.0303
CA 18.2389 -15.8514 34.5103
CA 13.5396 -19.13 58.3013
CA 38.9141 -45.2726 61.4673
CA 20.0393 -28.8164 84.7115
CA 26.6725 -31.0343 77.23
CA 23.447 -3.4634 51.7618
CA 48.485 -22.3688 65.3424
CA 19.7751 -21.7422 58.3134
CA 12.6839 -16.1883 36.6248
CA 32.2853 -6.31805 45.97
CA 9.28521 -40.8485 33.8844
CA 12.7635 -3.80339 15.5199
CA 18.7992 -6.62413 50.7655
CA 13.6961 -32.4761 54.0154
CA 39.2614 -21.2957 57.6385
CA 30.0678 -42.5469 63.2167
CA 31.3289 -4.07518 39.3098
CA 38.0819 -1.32886 41.8118
CA 9.18477 -15.7546 39.227
CA 29.4451 -9.03103 40.2309
CA 29.967 -25.6021 40.4653
CA 11.5851 -23.9629 49.9985
CA 19.2826 -19.9344 52.3837
CA 50.0763 -15.8996 47.4955
CA 16.0002 -13.4275 17.4246
CA 30.2127 -4.76651 35.3771
CA 32.9827 -19.1863 69.2252
CA 7.93998 -19.2064 61.6499
CA 39.936 -19.2895 62.2833
CA 23.5715 -43.0285 48.5489
CA 24.103 -14.2949 59.0858
CA 28.6152 -19.3165 52.8796
CA 49.4349 -22.5516 77.1166
CA 32.908 -2.14481 36.3957
CA 28.488 -5.74646 44.1326
CA 51.4732 -17.4909 51.976
CA 24.4089 -8.46042 46.4163
CA 26.9915 -28.4629 74.949
CA 25.8036 -23.6603 39.3184
CA 16.2822 -16.6996 28.9561
CA 15.4113 -25.5797 37.3646
CA 41.0127 -28.3934 76.4487
CA 42.0799 -19.2952 73.0844
CA 52.5502 -24.7701 57.0285
CA 36.8813 -35.6032 88.3806
CA 15.4479 -12.061 64.403
CA 23.8728 -6.24753 64.419
CA 19.3247 -26.7611 62.8868
CA 45.8263 -23.9228 65.4798
CA 51.7613 -19.7616 49.7909
CA 38.0047 -16.9692 64.0928
CA 18.1573 -29.6463 83.9333
CA 10.8214 -19.6354 53.6027
CA 11.0048 -4.9075 59.7807
CA 7.92233 -0.0840564 18.1483
CA 32.0004 -29.5073 37.5763
CA 31.2456 -35.6782 52.6724
CA 33.1812 -41.8111 61.8249
CA 12.4844 -6.63927 69.1222
CA 27.8777 -37.1477 55.7568
CA 5.77338 -18.9668 34.7015
CA 12.6908 -12.9969 19.3331
CA 15.0899 -21.3777 41.1054
CA 37.7547 -47.1199 66.5771
CA 45.5348 -7.40977 56.117
CA 26.0945 -20.1513 38.4431
CA 21.1344 3.18606 58.5335
CA 31.5044 -27.8709 68.7898
CA 45.2384 -26.3183 73.543
CA 32.7955 -33.3103 37.2144
CA 35.744 -29.7693 59.7481
CA 30.3689 -15.8658 67.607
CA 9.88104 -8.06857 54.0821
CA 30.9725 -21.9858 61.8999
CA 31.9769 -14.2545 50.0162
CA 38.7763 -20.1292 49.7182
CA 48.6914 -32.4916 84.6797
CA 4.73014 -24.6324 42.9327
CA 19.0014 -31.4312 43.0665
CA 22.0726 -36.8391 41.4155
CA 26.7887 -29.9137 51.4513
CA 35.735 -7.79301 60.8207
CA 9.39499 -29.4333 60.4463
CA 48.7168 -17.7917 56.1002
CA 24.5182 -24.5431 41.29
CA 10.0469 -13.4729 53.4405
CA 31.2595 -11.5101 56.4762
CA 29.5026 -6.37405 30.7908
CA 41.0195 -35.2576 39.2478
CA 33.4044 -26.9153 65.4844
CA 21.6349 -21.6908 24.8886
CA 43.2601 -28.1779 76.4511
CA 37.2353 -25.6887 77.1722
CA 8.21847 -11.8089 11.6674
CA 6.54288 -23.1397 47.9735
CA 10.4632 5.59774 6.0774
CA 22.4387 -25.5863 55.2956
CA 8.66377 -7.05206 59.6828
CA 7.45976 -24.9252 34.6214
CA 31.4036 -41.2862 63.9942
CA 26.2629 -13.6307 58.4883
CA 22.1419 -28.0839 68.2618
CA 13.428 -19.7558 34.9895
CA 34.8617 -19.7134 81.5889
CA 23.0884 -38.4906 49.4254
CA 19.3275 -29.8224 87.5917
CA 40.0943 -25.6499 75.172
CA 53.1072 -10.129 53.6254
CA 33.7958 -10.6398 51.0344
CA 38.1139 -41.7107 65.2221
CA 15.6641 -16.9667 32.1957
CA 20.9088 -6.13529 38.9127
CA 32.9044 -9.57934 71.5237
CA 9.20232 -14.1347 17.6299
CA 7.31087 -3.91935 57.2689
CA 27.5472 -15.8952 57.3276
CA 7.18766 -21.9496 36.8688
CA 8.76886 -0.453187 54.1558
CA 14.7945 -27.8091 85.1422
CA 8.62368 -25.3954 61.3943
CA 38.1888 -32.0301 88.7309
CA 35.5625 -13.2492 54.8012
CA 47.6737 -20.653 69.0819
CA 46.0442 -23.3298 89.4598
CA 19.0337 -24.3642 80.8029
CA 29.1838 -39.0144 51.743
CA 45.5637 -25.6603 77.9303
CA 46.6419 -8.78371 59.8979
CA 45.1618 -26.9739 83.7744
CA 43.9449 -33.8238 82.6447
CA 33.5826 -2.29346 38.7992
CA 49.9706 -22.7712 71.3518
CA 38.9274 -41.4268 66.8959
CA 0.171271 -20.0528 56.1992
CA 32.4781 -39.55 54.4983
CA 7.19288 -22.8918 32.8445
CA 25.1545 -29.7268 63.9372
CA 15.51 -8.48133 67.7399
CA 26.0463 -29.4369 78.0698
CA 43.0683 -14.6328 73.1585
CA 26.5933 -28.99 58.2545
CA 52.87 -25.4828 54.9901
CA 17.2923 -5.11542 53.0817
CA 14.3767 -3.1658 11.6942
CA 15.7555 -28.9803 38.3267
CA 41.5556 -11.7174 69.1056
CA 31.0079 -5.29127 54.1264
CA 36.402 -43.0264 61.4608
CA 14.8999 -5.24384 53.9602
CA 51.6798 -14.7883 47.8098
CA 18.003 -20.5889 73.5738
CA 4.41651 -29.236 53.3119
CA 15.741 -3.41048 53.0493
CA 7.10598 -0.706528 52.1482
CA 12.1227 0.967143 17.4187
CA 34.7458 -25.0288 74.7507
CA 45.3498 -28.6176 81.1947
CA 10.3285 -3.53443 15.0497
CA 38.7214 -34.1367 39.216
CA 7.77901 0.705923 49.02
CA 18.4537 -35.5473 39.8255
CA 37.0923 -36.1765 39.0997
