489

CA 33.5094 -15.8909 67.6123
CA 48.1261 -15.8434 60.6935
CA 18.1917 -6.45943 18.1308
CA 23.812 -33.767 32.2421
CA 0.485218 -34.1332 47.1238
CA 10.9256 -9.99074 53.6212
CA 39.857 -10.8559 70.472
CA 38.4544 -26.6137 63.3128
CA 22.7181 -9.45841 22.3818
CA 17.1299 -30.8793 32.9892
CA 29.4264 -30.4981 53.338
CA 52.0663 -20.5074 68.5333
CA 37.1725 -14.9315 51.7735
CA 39.8516 -30.359 78.0947
CA 21.5001 -24.1012 62.5924
CA 36.642 -28.8579 49.3821
CA 24.5711 -15.4105 35.9736
CA 38.8143 -26.8456 79.4825
CA 16.5082 -26.1751 74.2494
CA 39.6127 -22.8646 50.255
CA 18.8218 -5.4109 63.4265
CA 23.3819 -22.057 64.2662
CA 12.8626 -8.05077 20.6177
CA 23.6989 -12.4804 24.4252
CA 29.3683 -40.8306 56.3997
CA 29.3131 -34.9557 79.4647
CA 43.5993 -27.0357 81.6258
CA 37.1944 -40.2708 53.1501
CA 49.3038 -20.1854 78.3561
CA 42.9079 -27.4899 58.3119
CA 28.5948 -32.1124 41.9977
CA 40.596 -26.9449 74.3142
CA 45.016 -1.60938 55.9077
CA 47.3001 -15.4078 48.362
CA 25.2636 -12.4377 41.145
CA 9.34905 -17.3777 17.8302
CA 2.91934 -21.6074 42.7662
CA 11.2541 -35.6619 54.2382
CA 32.9459 -31.9132 79.5916
CA 46.9986 -14.1494 50.9829
CA 39.1916 -32.5505 46.1245
CA 20.1125 -26.1892 69.5268
CA 22.0003 -11.8577 22.6271
CA 1.6998 -32.5793 56.8375
CA 21.4396 -13.0527 12.8445
CA 27.1508 -14.4353 46.9161
CA 46.2257 -18.237 60.7876
CA 14.3689 -23.624 21.0384
CA 10.6876 -21.4955 53.6802
CA 12.8463 -29.9963 62.93
CA 41.2355 -33.2444 41.5832
CA 47.0523 -13.0705 48.5407
CA 17.2289 -17.5592 7.63037
CA 25.2884 -40.6145 53.5111
CA 6.66884 -13.9626 50.6334
CA 24.39 -22.8948 80.7408
CA 19.0823 -33.4524 43.8969
CA 33.8714 -32.5269 31.2979
CA 44.3914 -20.2264 51.6393
CA 27.5525 -2.20595 43.5171
CA 32.6121 -29.7761 76.6948
CA 10.9476 -3.9771 53.117
CA 54.4893 -23.0661 80.626
CA 5.60658 -16.2203 45.8957
CA 32.6421 -30.0244 39.7011
CA 12.7948 -32.8473 55.0701
CA 34.5851 -32.7724 78.9237
CA 25.1985 -11.674 42.9949
CA 39.2104 -13.0902 65.7893
CA 51.0896 -6.31896 58.8744
CA 43.595 -16.1255 71.9185
CA 27.659 -24.9739 53.9711
CA 16.8845 -14.9224 22.1185
CA 3.34386 -1.55503 13.6223
CA 44.3535 -31.134 53.1866
CA 46.4224 -4.64803 55.5438
CA 41.2977 -26.645 44.9728
CA 31.5919 -22.1935 41.4132
CA 23.4808 -11.5088 54.0303
CA 27.5763 -45.7234 59.6245
CA 46.2181 -18.1852 58.3384
CA 33.3872 -21.8702 66.7169
CA 38.2824 -33.4797 30.2371
CA 15.4429 -22.3195 19.5117
CA 35.1796 -21.4311 73.7548
CA 15.9054 -30.5258 53.3603
CA 25.1467 -14.2062 21.5378
CA 25.1619 -9.79266 64.6749
CA 21.9234 -32.9213 37.0637
CA 40.5117 -37.2233 59.4466
CA 13.7875 -33.9589 34.0362
CA 10.63 -6.25787 30.7064
CA 7.7341 -31.8712 42.8268
CA 37.532 -44.6063 60.7323
CA 44.4962 -26.0161 92.7199
CA 12.176 0.64929 50.9204
CA 17.9417 -36.48 45.4814
CA 42.5022 -30.0538 65.6225
CA 9.56644 -13.8538 60.0147
CA 35.439 -32.5858 80.5324
CA 9.00217 -16.1393 59.882
CA 52.7331 -14.8286 51.5329
CA 40.5691 -32.126 55.5495
CA 19.6357 -23.0808 65.8946
CA 14.3539 -11.1486 67.3801
CA 24.4058 -18.5185 74.7905
CA 6.80115 -6.88043 60.654
CA 49.4803 -20.9543 74.5201
CA 16.8117 -22.1677 25.0481
CA 14.5507 -14.7351 25.5297
CA 34.4266 -0.601903 44.1599
CA 25.7435 -27.8037 44.5628
CA 29.8003 -16.9948 58.1007
CA 14.5757 -23.0503 56.1331
CA 15.0093 -14.0814 20.836
CA 27.502 -19.736 81.7216
CA 19.6124 -22.3054 23.8651
CA 32.5543 -4.77651 63.9758
CA 42.1882 -30.1332 89.5862
CA 23.2987 -32.9436 76.8499
CA 40.5465 -5.5868 65.2781
CA 11.0136 -9.33097 67.6275
CA 6.07729 -37.4039 35.9661
CA 11.7428 -22.2201 16.7004
CA 14.3066 -14.2456 6.55646
CA 49.4397 -9.0191 59.0692
CA 50.5448 -18.2379 80.7727
CA 37.202 -33.689 59.8894
CA 8.99544 -21.472 57.8962
CA 54.1286 -15.6638 54.7593
CA 17.1164 -28.0974 60.0395
CA 35.0625 -30.6522 36.3127
CA 15.1674 -24.1387 49.8734
CA 19.7331 -29.0364 61.3359
CA 33.7314 -4.71745 59.9393
CA 28.752 -20.5712 38.3917
CA 19.7779 -14.5498 18.22
CA 24.1319 -15.8051 62.5719
CA 13.5453 -5.73432 66.8414
CA 16.1115 -11.7542 15.8782
CA 39.7262 -30.2239 46.6775
CA 34.8447 -10.6506 64.1635
CA 24.6303 -13.4792 45.3906
CA 27.9932 -36.6709 55.3214
CA 17.2941 -13.9036 57.0979
CA 5.77584 -26.894 33.1619
CA 43.5544 -14.199 52.5212
CA 22.8069 -31.4258 61.4194
CA 6.32001 -18.0115 51.148
CA 33.6371 -7.74639 60.029
CA 24.8656 -38.3936 35.1085
CA 35.9083 -20.5091 44.2419
CA 37.6222 -22.6304 41.7495
CA 19.1101 -23.7717 69.471
CA 24.6907 -32.6592 37.2584
CA 7.35844 -4.01386 14.0527
CA 37.9363 -8.3675 35.4278
CA 40.4718 -10.8565 65.6755
CA 43.4752 -26.9633 55.4623
CA 38.5169 -22.9773 78.2133
CA 13.6438 -24.6117 56.245
CA 41.9561 -25.8216 79.488
CA -0.561885 -35.8677 60.199
CA 32.7193 -19.693 55.3364
CA 19.959 -13.9105 35.5928
CA 41.0027 -26.0751 90.799
CA 19.1889 -23.1652 28.9375
CA 33.7906 -29.7509 28.3484
CA 40.6092 -39.594 49.6173
CA 40.1404 -30.2626 61.1555
CA 21.7034 -11.7866 19.0658
CA 36.3495 -14.2164 55.7693
CA 11.5558 -12.2813 45.7029
CA 18.2519 -14.8513 23.6528
CA 11.4783 -36.5009 35.6408
CA 16.6182 -30.782 55.0674
CA 17.9644 -24.2453 81.3268
CA 17.9128 -38.6877 50.0004
CA 21.0988 -26.5268 30.2525
CA 38.0706 -33.1349 78.7923
CA 18.6895 -31.0303 55.4893
CA 33.4199 -21.6148 37.8293
CA 19.5695 -19.8359 71.4746
CA 31.7229 -5.76492 34.235
CA 12.161 -10.4884 19.5414
CA 14.1384 -35.2304 53.4438
CA 19.8944 -29.5339 53.4113
CA 19.4795 -6.87 14.0504
CA 26.4268 -11.1637 55.927
CA 45.8035 -28.1789 58.6934
CA 30.4756 -30.9833 57.8777
CA 18.6458 -3.81533 60.4834
CA 11.9549 -32.0946 59.51
CA 32.5171 -39.6901 53.6484
CA 20.6102 -15.6997 9.13657
CA 26.5418 -33.4212 34.3759
CA 21.7317 -23.1647 43.1233
CA 30.0935 -19.451 54.4261
CA 31.9427 -35.408 83.3847
CA 20.6558 0.598394 60.7187
CA 38.2902 -22.0448 39.1914
CA 9.71746 -27.0367 49.2179
CA 21.5831 -28.5842 83.491
CA 37.2303 -16.7636 54.2785
CA 29.0912 -42.6553 51.0825
CA 16.9093 -8.37741 46.8392
CA 43.3792 -12.5124 68.5935
CA 20.8337 -32.3409 49.9763
CA 26.1897 -11.5222 45.4231
CA 16.5393 -29.4132 56.4032
CA 16.9581 -29.8605 62.0761
CA 49.6201 -21.2501 64.3893
CA 26.9689 -20.9659 33.3746
CA 17.5445 -3.11352 58.2409
CA 24.4688 -36.184 37.7889
CA 12.8668 -12.5521 16.9753
CA 15.4642 -18.7193 41.5919
CA 27.6597 -5.83031 58.2123
CA 40.4011 -19.1492 48.0685
CA 55.5962 -18.8562 56.9561
CA 39.6942 -18.8541 60.9283
CA 16.6753 -3.05088 52.8986
CA 31.1724 -28.6092 83.5799
CA 34.2082 -30.0831 56.5067
CA 15.599 -9.37553 65.5284
CA 24.6739 -31.1383 53.5351
CA 32.1757 -23.6459 72.4315
CA 10.2027 -34.1914 62.2083
CA 34.6626 -7.91457 67.1448
CA 54.0075 -21.9548 46.1813
CA 12.2742 -7.11546 71.263
CA 34.2197 -18.0575 35.1763
CA 35.7014 -32.919 36.8978
CA 20.6508 -22.917 9.66448
CA 27.7996 -23.9262 60.5389
CA 44.0972 -17.3912 48.3506
CA 17.1871 -6.30745 14.9439
CA 42.0046 -24.3182 72.4201
CA 11.1919 -10.8117 38.8031
CA 24.2174 -24.3502 79.2681
CA 60.3508 -21.5719 46.1483
CA 21.5391 -22.342 83.5611
CA 38.4621 -36.6671 44.3333
CA 20.0685 -11.5946 34.3149
CA 15.92 -16.3726 18.5111
CA 8.18481 -8.90331 52.3034
CA 36.0127 -36.4888 58.5582
CA 19.3314 -34.775 36.2138
CA 43.1172 -16.5226 62.5232
CA 19.1334 -9.7965 13.5756
CA 17.2501 -20.8535 19.7671
CA 17.4224 -26.4277 72.2606
CA 16.0506 -29.7404 60.324
CA 36.8748 -15.5381 70.1923
CA 39.6157 -27.4485 85.8403
CA 39.1359 -41.4895 54.7705
CA 23.2174 -2.34429 59.1985
CA 16.9927 -18.8277 9.43576
CA 38.2219 -27.3181 41.596
CA 44.0083 -21.1771 71.2865
CA 11.4098 -26.4982 51.0696
CA 7.81217 0.223068 49.3073
CA 50.0665 -22.4197 70.8172
CA 20.1953 -18.1821 9.43689
CA 20.763 -25.5734 63.5621
CA 24.0048 -20.227 66.4386
CA 17.3814 -33.2754 37.3697
CA 12.997 5.8537 5.61058
CA 31.0226 -45.2063 61.2883
CA 23.7751 -30.4251 43.4028
CA 55.3581 -19.8922 47.5367
CA 41.2106 -31.0016 43.3332
CA 11.8729 -4.33017 68.1504
CA 22.0643 -22.05 32.7872
CA 13.9631 -23.5107 17.9975
CA 35.3637 -24.3611 74.7278
CA 39.4487 -22.2265 82.2525
CA 16.4603 -19.0699 44.5696
CA 26.5969 -3.95146 40.3733
CA 25.9909 -24.0757 40.1832
CA 38.7584 -37.9652 59.1293
CA 30.8139 -28.8924 39.473
CA 20.169 -33.4891 41.5425
CA 42.681 -24.4808 51.1656
CA 22.8019 -40.614 38.4452
CA 28.9572 -29.7342 43.5876
CA 27.3524 -27.007 86.6476
CA 26.2691 -9.22862 62.7081
CA 16.2209 -13.2024 36.8905
CA 5.09976 -8.12461 61.0624
CA 38.186 -30.9073 36.1793
CA 34.3388 -44.8779 57.5704
CA 9.7335 -28.0067 65.8561
CA 54.6745 -16.8883 46.9563
CA 11.5273 -24.8669 25.5678
CA 45.0022 -21.3755 81.6481
CA 11.4193 0.479487 11.3621
CA 23.8672 -7.46131 39.3435
CA 27.077 -28.6536 84.267
CA 21.6991 -33.1305 39.8156
CA 21.4046 -32.35 76.4761
CA 33.6841 -40.9583 60.0989
CA 23.657 -10.1625 17.2829
CA 17.7823 -19.6164 57.0761
CA 21.2139 -21.7487 79.196
CA 50.8186 -21.8424 76.109
CA 20.948 -16.6518 53.8484
CA 22.3622 -18.8973 9.03525
CA 15.0205 -22.0752 83.8563
CA 32.7168 -2.96336 34.5652
CA 61.5968 -20.4034 47.6344
CA 37.7234 -21.6648 79.3572
CA 8.84851 -10.3598 15.492
CA 30.5287 -32.7508 58.4381
CA 28.0365 -38.7547 41.003
CA 48.5798 -9.28801 55.8202
CA 36.1346 -19.6752 57.399
CA 30.0462 -20.4343 47.6695
CA 40.7291 -20.5042 72.4553
CA 22.2167 -18.4085 82.2534
CA 12.5046 -1.91927 65.526
CA 13.0943 5.24995 8.53514
CA 32.1038 -22.657 56.3122
CA 20.502 -29.2267 45.0798
CA 38.6234 -26.5182 60.4053
CA 22.3934 -15.9232 45.0175
CA 1.28046 -33.8311 45.0659
CA 12.9791 -12.5927 44.2289
CA 5.26102 -18.1621 53.0635
CA 12.9701 -14.0332 14.3303
CA 12.2249 -40.408 54.9671
CA 16.2433 -2.34206 49.3429
CA 28.9653 -23.6892 51.2723
CA 21.5638 -26.8031 83.8113
CA 9.43615 -33.2078 39.9415
CA 29.6886 -7.83554 67.6295
CA 22.2722 -24.3623 60.3695
CA 7.13267 -27.7848 51.2337
CA 14.3645 -31.9687 43.7168
CA 18.7992 -6.62413 50.7655
CA 44.4459 -18.1582 61.5396
CA 17.9637 -17.2599 25.1938
CA 27.1023 -40.3486 59.4872
CA 55.7205 -15.5762 42.3092
CA 56.9519 -21.926 76.4905
CA 18.9687 -36.1661 48.0398
CA 47.1876 -5.59314 59.9998
CA 14.9435 -4.8709 65.7885
CA 13.9898 -25.3062 42.3209
CA 10.3818 -11.0979 52.0162
CA 15.4477 -27.8432 29.7315
CA 16.0002 -13.4275 17.4246
CA 32.014 -27.8669 85.1694
CA 45.3274 -26.4586 82.4545
CA 15.196 -14.8841 10.3374
CA 18.2225 -12.7829 33.1805
CA 9.67469 -8.00492 14.8034
CA 32.5104 -21.6035 54.607
CA 28.6152 -19.3165 52.8796
CA 15.139 -8.72705 44.1318
CA 58.1916 -20.217 42.7006
CA 49.4075 -9.42269 47.8293
CA 11.2375 -10.2426 43.9534
CA 10.6496 -2.09845 52.9777
CA 42.5697 -25.1513 45.0741
CA 25.1911 -6.49245 55.2916
CA 10.831 -19.4017 58.421
CA 16.7662 -9.69349 59.9194
CA 37.8314 -42.5229 51.7877
CA 49.8965 -22.157 79.6883
CA 33.5512 -13.7391 67.3649
CA 28.3137 -6.00627 35.4991
CA 42.4494 -28.8855 83.0808
CA 1.40604 -34.9001 52.0098
CA 31.4734 -19.3577 43.3505
CA 28.9294 -21.9796 41.9716
CA 54.2372 -22.822 73.1863
CA 19.7115 -18.3937 49.0493
CA 43.975 -18.0726 74.4093
CA 32.9027 -22.2093 43.1686
CA 16.2322 -16.6732 55.936
CA 7.92233 -0.0840564 18.1483
CA 42.8128 -11.4678 64.5091
CA 25.0717 -32.1712 78.9839
CA 32.5613 -41.6162 58.8238
CA 25.1713 -26.6343 48.9152
CA 38.5357 -19.9451 62.3959
CA 10.6032 -6.9066 68.9735
CA 12.6908 -12.9969 19.3331
CA 12.9043 -33.6958 44.394
CA 18.9624 -36.6666 40.4336
CA 46.7248 -18.9025 77.1555
CA 9.38387 -2.90971 11.5035
CA 35.8608 -33.3395 56.9257
CA 14.9431 -15.2699 36.0787
CA 4.63641 -8.40852 59.1207
CA 42.2653 -22.5517 83.6392
CA 38.6857 -47.4855 59.0936
CA 36.8008 -30.7108 76.9336
CA 9.88104 -8.06857 54.0821
CA 30.5752 -26.9606 86.0733
CA 50.5623 -14.8545 63.6358
CA 28.6589 -31.6613 57.8118
CA 31.6347 -6.8011 63.6263
CA 27.1025 -12.4689 46.8855
CA 35.0016 -19.1233 64.5025
CA 21.7287 -12.0029 58.6263
CA 53.3261 -21.114 71.3729
CA 21.5893 -4.90884 47.3231
CA 23.602 -10.3018 56.8635
CA 23.319 -12.8853 42.0197
CA 21.4017 -20.2661 70.9316
CA 17.9855 -8.89809 36.4354
CA 7.45339 -28.9441 35.9546
CA 33.6666 -19.0433 43.4416
CA 48.7201 -6.26897 58.3206
CA 9.5105 -8.1467 36.5416
CA 22.1651 -20.8439 31.1034
CA 38.215 -17.1776 70.2976
CA 47.4192 -6.61232 55.9019
CA 25.6771 -23.0167 36.4282
CA 9.00327 -34.013 37.7265
CA 11.0286 -7.46481 33.457
CA 14.4458 -36.6954 43.087
CA 5.40392 -18.7952 46.8873
CA 36.8445 -25.2034 77.2173
CA 15.4868 -16.379 50.8295
CA 26.2629 -13.6307 58.4883
CA 37.1809 -19.2429 53.7855
CA 53.521 -21.0801 47.9329
CA 33.8575 -27.4522 55.4363
CA 9.52597 -31.6793 40.9967
CA 40.7633 -27.2049 58.5162
CA 46.3023 -28.8351 67.6222
CA 43.3022 -22.4817 74.73
CA 23.3617 -20.5817 77.0401
CA 26.2179 -7.65259 37.7804
CA 14.3763 -17.7482 82.5143
CA 20.9088 -6.13529 38.9127
CA 36.6495 -37.8597 49.5298
CA 9.20232 -14.1347 17.6299
CA 30.1789 -16.1104 64.7286
CA 38.1748 -24.3035 59.3192
CA 42.1559 -22.621 42.4357
CA 12.9224 -11.7412 15.1505
CA 16.8186 -15.1906 16.6978
CA 26.2658 -33.9389 74.2698
CA 7.53345 -31.4649 34.3496
CA 43.1754 -13.532 65.8109
CA 38.9631 -27.988 46.8457
CA 14.6062 -17.786 86.2926
CA 34.4638 -5.31179 64.9113
CA 17.3805 -32.4992 51.6955
CA 28.7755 -10.6249 65.8762
CA 29.9221 -5.17713 67.143
CA 9.50067 -29.602 47.6432
CA 14.5251 -15.9157 7.86574
CA 33.5826 -2.29346 38.7992
CA 12.9967 1.27491 53.2063
CA 7.02919 2.18657 49.8735
CA 21.3076 -32.1193 62.7849
CA 25.9135 -21.4328 73.1763
CA 43.2207 -19.187 63.7498
CA 6.86434 -8.1056 54.5957
CA 23.8848 -23.0656 59.7964
CA 20.9993 -14.54 45.0612
CA 24.9462 -15.6187 54.8395
CA 29.7575 -27.8349 57.7812
CA 23.2532 -21.6382 36.4092
CA 33.8339 -6.21886 35.2888
CA 31.1336 -33.3778 84.1136
CA 10.8988 -27.2838 45.7999
CA 6.30157 -11.7342 50.7246
CA 39.2887 -22.099 42.3155
CA 3.42998 -12.4278 51.0918
CA 20.9919 -17.7701 41.3671
CA 10.8999 -9.65713 59.1883
CA 30.5779 -24.808 85.8519
CA 4.41651 -29.236 53.3119
CA 21.9019 -7.61224 17.9069
CA 14.0022 -11.9685 62.3315
CA 18.326 -13.1212 35.0325
CA 13.2267 -13.6624 21.9426
CA 33.215 -32.3344 76.3508
CA 50.7944 -11.4309 55.9923
CA 38.7214 -34.1367 39.216
CA 15.0693 -11.825 19.2999
CA 53.2239 -23.0182 49.2843
CA 16.4369 -13.8529 46.9897
