489

CA 25.1414 -32.7187 32.7295
CA 23.3357 -21.1479 29.7379
CA 18.1917 -6.45943 18.1308
CA 42.6661 -22.7915 52.0774
CA 18.913 -42.4494 49.2639
CA 13.0875 -21.3844 37.1456
CA 17.8048 -9.3049 17.0525
CA 36.7445 -42.1767 59.7264
CA 36.3504 -15.4347 61.9322
CA 28.7775 -35.4126 54.5299
CA 30.2694 -11.9883 39.9982
CA 20.572 -31.0039 34.6833
CA 41.8307 -32.475 84.3961
CA 31.5889 -11.6583 41.367
CA 34.8587 -23.8648 58.5933
CA 19.9615 -14.7093 41.955
CA 23.6826 -39.6265 43.1508
CA 22.2562 -29.1375 40.9285
CA 33.442 -34.5592 43.6775
CA 36.6619 -23.5467 49.3532
CA 33.7035 -28.1827 35.2821
CA 12.8528 -20.8032 43.9675
CA 42.072 -25.0669 81.5931
CA 11.4395 -20.3723 58.0773
CA 28.7496 -18.9251 44.5032
CA 21.4548 -12.0265 37.7197
CA 18.3377 -44.9782 45.5743
CA 8.44411 -25.0353 46.1089
CA 52.8848 -26.8527 53.5926
CA 24.3941 -33.7175 34.4904
CA 39.4797 -22.227 57.3109
CA 44.1835 -21.4567 65.0344
CA 51.5459 -25.5964 67.0684
CA 42.3354 -28.5351 63.9225
CA 29.5287 -13.8797 58.7192
CA 9.34905 -17.3777 17.8302
CA 34.0087 -41.677 54.7706
CA 8.86074 -40.5929 46.5827
CA 39.7323 -7.1585 48.8903
CA 21.3832 -4.51031 12.1062
CA 42.4427 -19.3742 54.7858
CA 16.5732 -8.19313 3.37312
CA 45.7518 -13.9455 60.8887
CA 45.1696 -42.1032 66.8703
CA 38.9956 -22.2286 80.6581
CA 44.7374 -33.3109 44.5505
CA 42.2259 -27.9662 35.5503
CA 12.231 -41.8845 44.5575
CA 6.08758 -30.0417 49.0523
CA 41.8506 -29.9802 28.0125
CA 19.6661 -7.87984 56.9298
CA 54.407 -32.409 50.3254
CA 48.3107 -25.3708 70.6316
CA 42.1184 -5.8699 37.8072
CA 31.8672 -33.4757 91.6329
CA 19.3829 -9.68485 23.8191
CA 22.0953 -12.7171 12.5331
CA 31.4065 -29.1277 80.2447
CA 53.6137 -30.159 74.1493
CA 34.7163 -20.4053 66.3005
CA 19.3692 -35.6388 44.9285
CA 43.483 -23.0543 75.014
CA 41.1065 -31.9433 28.0729
CA 53.6874 -36.7364 54.7882
CA 18.3947 -25.4035 61.0763
CA 35.7415 -9.81878 47.9494
CA 13.5511 -23.4612 47.1908
CA 38.1286 -27.995 91.4583
CA 38.6614 -49.0364 65.0227
CA 38.0812 -23.2953 40.0428
CA 39.4421 -22.1646 70.542
CA 46.5518 -26.5412 27.0332
CA 10.9533 -35.6882 43.299
CA 47.9067 -31.1507 82.6045
CA 13.456 -38.9483 41.8551
CA 39.3511 -30.3355 50.3604
CA 25.6321 -35.4045 33.6364
CA 10.343 -29.0245 53.4358
CA 37.5731 -50.9488 67.3425
CA 14.4773 -27.5299 56.7937
CA 19.6076 -42.051 52.2415
CA 11.304 -23.2041 40.6963
CA 40.2278 -14.5864 64.2276
CA 15.4429 -22.3195 19.5117
CA 6.89667 -16.5144 20.7757
CA 20.0028 -7.39406 51.6556
CA 34.1105 -38.2038 81.4864
CA 15.1227 -36.066 53.1759
CA 41.8784 -12.8618 37.7605
CA 35.7922 -31.1821 64.7856
CA 31.111 -40.5464 54.3566
CA 22.0428 -33.1721 58.2175
CA 53.1437 -31.6021 53.7719
CA 21.5111 -14.467 13.0212
CA 17.5299 -21.6185 62.7866
CA 54.173 -18.2591 49.9119
CA 33.7126 -26.0133 58.3094
CA 11.0635 -14.6654 28.3573
CA 21.0821 -4.0242 62.2709
CA 34.9154 -30.2272 44.5552
CA 11.3129 -25.6236 55.0456
CA 20.1119 -27.9471 54.9203
CA 13.8807 -20.8559 45.7932
CA 28.5553 -34.3569 32.865
CA 34.4979 -18.3203 50.7556
CA 42.0765 -45.5121 67.0819
CA 10.63 -20.529 62.3034
CA 24.2468 -12.5192 38.0055
CA 8.71557 -16.0005 58.9357
CA 47.563 -21.6747 65.3808
CA 20.8138 -7.21403 13.3079
CA 32.9489 -17.62 55.0359
CA 39.5022 -44.3063 64.2276
CA 44.0798 -33.5763 46.2653
CA 17.0849 -17.5069 51.3102
CA 41.8085 -35.8759 38.3835
CA 36.9435 -18.6648 36.0758
CA 9.49376 -3.15592 15.3684
CA 27.6142 -21.1264 38.1977
CA 24.4513 -18.6247 39.5656
CA 17.0468 -16.249 58.4135
CA 24.7903 -12.6949 48.2734
CA 25.4682 -21.7812 68.3684
CA 48.2536 -26.6307 47.1296
CA 12.2566 -16.832 46.5937
CA 37.4247 -30.9653 34.052
CA 3.64476 -28.4085 50.1801
CA 50.501 -26.8689 73.4479
CA 33.9823 -21.4901 56.5365
CA 20.8813 -25.0271 79.4056
CA 21.3345 -29.3219 50.4862
CA 39.8653 -27.4488 73.3722
CA 22.6559 -10.1726 48.1422
CA 21.7734 -17.5238 47.8052
CA 35.6201 -44.186 56.7578
CA 51.6702 -18.2847 55.0174
CA 32.354 -14.5925 33.0804
CA 43.576 -27.3803 80.3593
CA 30.6672 -15.5402 49.3085
CA 14.7888 -10.1941 8.38274
CA 7.96257 -16.1953 54.9693
CA 29.071 -29.2067 57.4961
CA 18.5544 -15.8963 15.6474
CA 21.504 -8.00681 54.5019
CA 21.3674 -17.4878 10.7771
CA 32.4775 -28.368 91.5737
CA 45.0867 -30.537 27.8581
CA 19.222 -19.8702 35.3137
CA 22.2193 -9.1751 64.3354
CA 36.3099 -11.9538 55.3384
CA 32.358 -23.8604 47.7194
CA 41.0051 -54.0022 67.08
CA 25.7104 -12.7468 16.8738
CA 33.7281 -11.3791 45.0708
CA 37.8393 -33.8154 85.3018
CA 36.2521 -40.2713 53.5385
CA 22.8709 -14.4937 61.186
CA 7.72539 -33.9561 41.0407
CA 43.1726 -31.2037 38.4144
CA 44.9582 -20.1185 53.2054
CA 45.4547 -24.1409 43.6024
CA 36.2467 -8.51363 53.238
CA 8.83504 0.255165 21.7239
CA 11.0202 -40.8884 45.466
CA 51.4288 -14.6759 47.9493
CA 29.7821 -42.8287 56.7285
CA 20.5347 -20.439 31.6526
CA 39.668 -29.9103 47.7788
CA 47.3876 -33.43 82.5162
CA 34.0579 -35.1607 89.7051
CA 21.7034 -11.7866 19.0658
CA 44.1183 -25.1209 31.564
CA 8.20546 -26.2307 54.0707
CA 47.6816 -30.035 46.195
CA 10.5915 -14.9339 63.2393
CA 16.6112 -12.7028 46.7226
CA 38.4179 -33.5552 54.3211
CA 17.0419 -33.0718 35.4001
CA 19.457 -13.5214 26.9955
CA 36.9926 -24.3668 75.4976
CA 13.166 -12.0315 25.3841
CA 31.9958 -38.9128 53.8439
CA 24.4106 1.30446 59.4432
CA 28.1809 -20.2261 36.3711
CA 33.055 -6.45691 53.3458
CA 10.9409 -18.1345 58.0035
CA 22.3108 -43.5507 46.9031
CA 30.0176 -23.2647 35.4531
CA 18.6418 -30.827 76.6228
CA 50.4384 -30.1271 83.837
CA 47.767 -15.8903 44.4339
CA 11.8192 -16.4635 55.5507
CA 37.4407 -3.11375 40.1711
CA 20.9158 -11.8498 25.8057
CA 8.73984 -19.8232 38.467
CA 47.6678 -20.9662 74.0555
CA 19.838 -38.1501 55.7993
CA 19.7601 -36.5306 32.8437
CA 46.2704 -30.2182 50.5171
CA 47.5063 -32.7278 27.3754
CA 6.91251 -29.6927 43.6222
CA 54.7092 -33.9929 54.0699
CA 47.4097 -23.7004 43.7779
CA 40.3666 -21.859 67.6173
CA 30.9627 -19.4072 50.7578
CA 26.0109 -22.4981 50.6369
CA 13.8936 -14.1101 54.1801
CA 14.6579 -36.8788 46.5822
CA 18.1071 -34.0128 55.8031
CA 43.392 -27.1791 86.2597
CA 29.4888 -45.7294 48.7352
CA 31.3622 -21.469 69.0738
CA 20.2748 -18.0491 24.0831
CA 28.0471 -16.3517 41.0359
CA 26.237 -33.2211 46.7825
CA 12.8668 -12.5521 16.9753
CA 44.3813 -36.7748 87.1565
CA 22.6868 -15.7696 33.0677
CA 37.4045 -23.7838 33.5046
CA 15.0313 -14.3525 25.7357
CA 24.7109 -5.84536 61.0239
CA 24.1213 -25.3389 61.4378
CA 27.0169 -19.6615 40.0435
CA 37.2691 -22.3782 54.0844
CA 13.1428 -4.44711 16.9302
CA 28.1523 -40.4875 58.9126
CA 40.5307 -1.91764 50.1418
CA 33.0191 -10.3777 46.4567
CA 38.1069 -36.6895 34.2907
CA 35.5013 -46.2377 64.6622
CA 41.6538 -3.55213 44.5624
CA 14.5943 -42.7694 46.9958
CA 25.2891 -21.6218 65.164
CA 12.981 8.32715 1.67388
CA 42.7393 -13.4595 61.4299
CA 16.3094 -22.8219 35.3137
CA 25.4756 -10.2972 59.9235
CA 32.0933 -19.7279 69.2784
CA 45.3198 -24.2931 62.5034
CA 36.6156 -44.9071 65.6943
CA 36.4669 -14.204 56.7904
CA 25.2234 -11.6207 56.2157
CA 44.8071 -9.91047 47.5173
CA 20.5456 -22.8401 45.6144
CA 8.99535 -4.88135 16.6361
CA 32.5941 -9.46869 50.5915
CA 30.8301 -33.8238 52.6672
CA 26.8637 -22.971 30.9847
CA 56.8449 -34.7641 57.5273
CA 51.6476 -24.0922 57.2958
CA 17.2501 -20.8535 19.7671
CA 8.3897 -16.4305 19.2133
CA 55.2813 -22.063 53.7684
CA 19.4876 -32.7631 36.7149
CA 43.1524 -24.9549 29.4659
CA 19.2791 -14.1148 45.738
CA 9.85607 -19.3709 59.8363
CA 35.5919 -15.7415 67.0338
CA 10.4794 -39.4991 47.019
CA 43.3718 -16.3662 41.6655
CA 29.4736 -28.6049 81.7718
CA 61.0189 -13.2177 46.8473
CA 13.924 -11.2854 4.80361
CA 45.7089 -22.6304 80.2015
CA 45.83 -14.9845 46.5956
CA 52.1529 -17.6199 49.9543
CA 23.1175 -30.4328 89.5705
CA 28.6168 -28.5185 76.8628
CA 38.8173 -23.2903 74.7271
CA 32.6944 -24.1932 57.221
CA 27.6328 -42.0527 52.5359
CA 38.7732 -25.892 40.6843
CA 42.4069 0.445326 43.8402
CA 15.3549 -6.98975 17.7339
CA 48.9678 -33.3036 49.9641
CA 12.8956 -25.3476 37.1223
CA 17.3735 -28.7918 46.1136
CA 43.0891 -46.6891 66.1128
CA 12.3693 -25.2011 61.3813
CA 46.7209 -4.52693 42.8951
CA 25.5017 -30.505 77.7497
CA 33.8587 -18.0017 48.0248
CA 15.2351 -25.3323 41.7053
CA 15.9476 -40.6417 54.051
CA 31.691 -30.8051 86.167
CA 52.8624 -17.245 47.0988
CA 17.6072 -39.6422 53.8887
CA 53.13 -22.9394 80.7212
CA 37.395 -27.6488 56.6318
CA 46.356 -11.623 54.5397
CA 20.7366 -23.8104 40.4602
CA 24.819 -14.0112 52.5369
CA 39.0867 -6.14362 51.7565
CA 29.104 -36.5145 59.359
CA 28.8039 -26.1583 77.9945
CA 30.2088 -29.999 42.0029
CA 11.4193 0.479487 11.3621
CA 13.8517 -14.4581 30.887
CA 56.6144 -15.8528 52.0998
CA 26.9998 -32.6021 33.1916
CA 23.8556 -12.3777 10.5935
CA 27.5219 -25.4944 56.5512
CA 23.657 -10.1625 17.2829
CA 32.5466 -16.5437 44.8969
CA 44.5257 -24.1338 55.7876
CA 12.2858 12.3779 1.91787
CA 27.7447 -26.3133 51.9314
CA 34.137 -18.1563 43.5711
CA 6.8368 -29.381 45.6836
CA 27.3407 -9.19327 59.1258
CA 14.3206 -2.92933 20.0834
CA 26.796 -26.5978 76.5682
CA 34.9334 -42.1333 64.641
CA 12.4896 8.32522 4.81934
CA 14.5907 -45.354 44.5827
CA 30.1316 -20.876 34.0383
CA 51.2215 -21.4728 74.3651
CA 50.1254 -30.1885 53.3844
CA 35.6666 -40.7124 37.7684
CA 45.7421 -27.3595 80.291
CA 38.1681 -19.4103 41.0081
CA 13.0943 5.24995 8.53514
CA 27.1936 -11.1463 38.5187
CA 49.005 -29.726 24.1016
CA 22.5811 -23.297 64.4882
CA 19.3855 -17.5728 21.3048
CA 7.85294 -12.5236 20.7307
CA 36.6228 -48.5477 67.7738
CA 25.8048 -27.9254 36.926
CA 38.3717 -30.8356 86.879
CA 35.027 -26.699 77.6984
CA 58.0185 -9.14407 47.6766
CA 47.2498 -25.6143 51.0498
CA 16.6307 -11.5459 3.66031
CA 33.2674 -10.9391 40.9255
CA 23.2155 -17.3695 46.0584
CA 15.4186 -19.6101 50.6034
CA 19.9147 -13.375 2.12504
CA 24.9062 -24.4188 63.1769
CA 30.4368 -20.8541 64.8455
CA 9.73675 -27.6093 50.8471
CA 17.6069 -15.0198 27.5179
CA 48.2646 -23.8973 76.2315
CA 16.0958 -19.1502 53.3725
CA 12.7948 -27.8492 42.3378
CA 30.5313 -11.4425 35.7831
CA 13.9068 -15.3459 10.0285
CA 22.2426 -6.01848 54.9979
CA 45.923 -19.1585 44.2671
CA 33.6846 -28.2989 40.0509
CA 39.3886 -9.5526 56.8299
CA 31.7721 -8.62627 38.4054
CA 33.8411 -25.0024 71.5447
CA 24.6336 -35.9573 78.8782
CA 34.4051 -7.60226 52.3362
CA 31.6062 -27.765 75.2783
CA 9.67469 -8.00492 14.8034
CA 45.5333 -18.8826 51.0535
CA 34.7453 -18.3575 65.3171
CA 29.1162 -11.3465 54.9623
CA 48.5053 -34.6693 79.5931
CA 22.0706 -34.537 80.2992
CA 19.2042 -30.7753 82.0915
CA 26.5268 -9.67101 51.354
CA 20.948 -16.2952 24.2767
CA 36.1401 -26.9828 71.7352
CA 17.6886 -11.4997 6.18939
CA 46.6145 -9.44157 61.1258
CA 43.5726 -1.09714 40.6655
CA 34.9155 -31.6824 80.3704
CA 21.6292 -31.8795 80.2956
CA 20.3062 -22.0716 81.2889
CA 43.647 -21.198 52.4973
CA 27.304 -1.57427 58.4447
CA 7.16282 -26.057 50.9955
CA 27.8578 -27.8532 47.7311
CA 39.5457 -2.88701 38.509
CA 26.5886 -16.5104 62.8942
CA 11.7063 -13.5263 22.2248
CA 13.8656 -28.5834 37.2085
CA 51.1158 -22.6168 77.4556
CA 7.92233 -0.0840564 18.1483
CA 31.0563 -16.745 59.9307
CA 43.9884 -3.15078 42.2448
CA 21.3343 -13.2413 6.68769
CA 37.3746 -25.9901 57.9425
CA 45.5913 -17.3586 76.5087
CA 34.3427 -34.9807 54.8652
CA 12.6908 -12.9969 19.3331
CA 18.2569 -13.2443 0.635268
CA 11.4594 -19.8576 21.2618
CA 3.89614 -25.4928 45.2246
CA 9.38387 -2.90971 11.5035
CA 16.467 -40.1596 56.0789
CA 47.2015 -29.5554 26.4181
CA 16.3527 -33.7225 33.115
CA 42.4769 -16.8829 39.9664
CA 18.5461 -32.5071 40.2617
CA 40.6362 -31.573 47.5716
CA 41.0917 -28.3228 53.5254
CA 50.7125 -11.6536 46.3862
CA 18.5426 -28.3006 51.2953
CA 13.5092 -29.7017 59.0104
CA 30.138 -28.5352 43.262
CA 46.4735 -23.3394 76.0285
CA 31.4123 -18.2711 34.5897
CA 8.40068 -10.0652 15.1506
CA 46.6898 -26.5183 29.2856
CA 2.47085 -29.7742 52.7435
CA 38.7422 -16.588 69.7898
CA 30.0975 -29.3941 35.6125
CA 32.7652 -27.361 67.0036
CA 45.1057 -13.856 65.1995
CA 41.4624 -2.17569 36.241
CA 31.1718 -25.1405 48.3481
CA 52.8155 -22.5529 53.0975
CA 40.0927 -23.4149 36.0762
CA 21.3088 -22.8698 30.8282
CA 11.4072 -14.169 14.9191
CA 28.7035 -26.7921 60.3345
CA 41.5503 -33.6933 50.6383
CA 42.7801 -22.3063 61.9606
CA 37.8875 -15.7006 58.6938
CA 11.0912 -32.7975 46.3125
CA 6.2888 -37.5665 40.8896
CA 49.4039 -31.9401 55.1853
CA 27.9165 -15.7239 45.2596
CA 13.2974 -28.0211 47.3394
CA 26.5035 -21.8512 52.2643
CA 34.4004 -15.1458 31.5444
CA 28.3843 -27.8703 78.6351
CA 40.0836 -43.2544 62.4078
CA 16.6969 -37.6158 53.2284
CA 23.5185 -9.61681 59.6763
CA 33.6238 -32.9561 65.2164
CA 39.8877 -32.2591 49.136
CA 40.692 -42.4713 58.3507
CA 11.8422 -21.4108 33.1059
CA 28.8782 -25.9864 43.7549
CA 36.6838 -31.9098 89.4267
CA 17.3003 -22.1919 18.2073
CA 22.9491 -18.8744 61.2355
CA 20.2678 -18.3006 50.6184
CA 32.8466 -6.57162 49.632
CA 42.9624 -13.5663 42.0557
CA 16.8186 -15.1906 16.6978
CA 55.29 -30.7516 55.0843
CA 24.4468 -24.2885 54.1368
CA 41.7111 -20.8205 49.732
CA 34.2201 -33.5183 80.7774
CA 45.1306 -10.4973 56.6775
CA 14.9604 -23.4904 36.318
CA 42.2977 -23.2816 68.3083
CA 14.1687 -31.271 36.4468
CA 35.1249 -45.4117 62.9702
CA 28.4442 -34.7663 51.4165
CA 24.7602 -26.145 80.0071
CA 33.5826 -2.29346 38.7992
CA 37.6375 -20.6351 39.738
CA 40.1003 -5.20735 42.4245
CA 16.6025 -10.1615 58.726
CA 26.2902 -29.1452 86.607
CA 22.3947 -42.401 53.4822
CA 54.1467 -11.812 44.3921
CA 46.1041 -13.951 45.086
CA 21.0816 -17.1376 27.3162
CA 48.4707 -24.5048 40.9088
CA 32.0866 -28.5114 88.7424
CA 22.7153 -19.9103 35.3458
CA 53.7239 -33.6455 46.0765
CA 34.3384 -38.251 38.1669
CA 42.0991 -16.6314 49.8198
CA 34.9924 -4.10786 34.4075
CA 52.1306 -31.651 71.7886
CA 50.6597 -39.0312 54.4433
CA 38.944 -30.7126 40.2517
CA 20.3039 -44.9377 45.3587
CA 23.7157 -32.6351 30.6243
CA 49.5925 -26.3131 48.8672
CA 21.9019 -7.61224 17.9069
CA 40.2175 -27.3898 63.5981
CA 17.3756 -18.7855 46.9139
CA 39.9745 -29.3679 83.3079
CA 23.674 -6.34698 16.6642
CA 13.8826 6.12407 0.445583
CA 20.0439 -30.0416 56.4395
CA 33.755 -8.76934 32.5918
CA 44.8213 -28.4223 82.2138
CA 41.3359 -14.0681 58.5336
