489

CA 45.0509 -14.7177 61.975
CA 35.3893 -17.9964 31.7859
CA 16.6814 -7.52869 18.8728
CA 50.5224 -29.7905 49.388
CA 32.4577 -27.7462 64.9813
CA 37.0216 -6.152 41.7979
CA 17.8048 -9.3049 17.0525
CA 38.4034 -39.9158 34.8369
CA 33.0267 -9.55113 42.7879
CA 29.3434 -25.119 34.177
CA 43.6473 -17.254 40.2853
CA 27.4 -20.197 41.9107
CA 38.7471 -20.2439 65.3201
CA 12.9345 -16.9751 20.6264
CA 51.4974 -24.8208 57.6262
CA 16.5587 -28.825 50.0819
CA 23.6826 -39.6265 43.1508
CA 25.6084 -20.6905 31.3988
CA 33.6356 -29.9908 49.6202
CA 39.1006 -27.685 79.9286
CA 27.0232 -26.3332 74.4925
CA 26.9115 -13.8869 59.8676
CA 32.971 -31.2583 91.7627
CA 39.5981 -37.2359 38.7705
CA 47.1924 -19.8191 63.8752
CA 55.8349 -22.1175 77.388
CA 12.9947 -10.8379 13.317
CA 46.3709 -9.58117 47.4956
CA 52.8848 -26.8527 53.5926
CA 6.65815 -35.5948 44.9192
CA 28.7059 -22.7653 57.4867
CA 38.9557 -13.2062 48.8372
CA 16.2984 -39.7649 59.8475
CA 52.8561 -25.0443 72.11
CA 29.5287 -13.8797 58.7192
CA 9.34905 -17.3777 17.8302
CA 41.8123 -27.6419 72.0147
CA 56.8083 -35.6143 57.5928
CA 46.6578 -27.7271 77.8235
CA 21.3832 -4.51031 12.1062
CA 37.7123 -7.07484 40.1884
CA 39.2207 -21.2744 27.6429
CA 32.293 -30.7431 95.2043
CA 36.8648 -34.2551 64.8573
CA 35.0563 -18.9604 36.673
CA 32.8064 -36.0993 58.9422
CA 17.541 -12.2446 13.3547
CA 13.5281 -3.14811 57.8491
CA 59.4565 -34.1524 52.1349
CA 41.8506 -29.9802 28.0125
CA 19.6661 -7.87984 56.9298
CA 54.407 -32.409 50.3254
CA 34.9236 -23.3813 65.6821
CA 36.0577 -43.8763 60.2164
CA 36.7534 -43.9773 69.2819
CA 38.2976 -29.5307 72.5652
CA 22.7542 -39.3781 62.139
CA 33.491 -35.6914 46.143
CA 8.35172 -22.8112 47.558
CA 19.8523 -27.4418 78.0346
CA 19.3692 -35.6388 44.9285
CA 43.6583 -11.634 48.4303
CA 21.7856 -27.9028 58.2973
CA 52.1186 -16.499 46.8596
CA 9.5123 -32.7393 42.7321
CA 39.6604 -32.8433 46.0313
CA 15.1131 -13.0322 47.197
CA 51.8839 -17.5558 51.0396
CA 49.5322 -35.2562 57.0468
CA 19.0319 -30.5825 46.7031
CA 14.857 -15.278 51.0312
CA 30.6899 -25.6768 78.5104
CA 31.5428 -26.8077 32.5775
CA 33.4667 -16.2471 30.6776
CA 54.8314 -26.582 47.1331
CA 23.5719 -19.6843 62.1285
CA 36.3416 -24.0975 66.7959
CA 41.7958 -23.1802 66.3836
CA 36.0246 -47.8261 65.6493
CA 19.4127 -39.5764 44.9494
CA 14.9034 -30.9381 55.8031
CA 36.5959 -17.3915 52.7032
CA 14.5248 -22.6411 44.2077
CA 15.4429 -22.3195 19.5117
CA 49.4159 -22.7369 54.6165
CA 8.25946 -16.5148 46.9191
CA 43.4293 -37.2705 76.7089
CA 8.15807 -18.8929 54.8507
CA 34.6124 -36.4234 60.7199
CA 58.1352 -35.592 50.2028
CA 26.0237 -18.0602 41.7898
CA 21.3528 -42.3522 61.0948
CA 27.1793 -26.9692 80.7291
CA 21.5111 -14.467 13.0212
CA 15.064 -17.2732 54.2748
CA 30.6692 -35.718 51.8036
CA 15.5524 4.35839 -2.10257
CA 43.9702 -24.9591 77.0939
CA 27.6945 -12.9395 56.7682
CA 28.5524 -32.6757 37.2021
CA 20.2124 -33.7323 91.2044
CA 30.6403 -22.3374 38.5163
CA 48.8683 -23.0208 68.1851
CA 34.5418 -17.2236 36.7325
CA 36.3183 -36.8561 43.9941
CA 42.0765 -45.5121 67.0819
CA 29.6493 -4.96942 61.0516
CA 22.9447 -7.22307 21.02
CA 18.836 -37.7638 58.2753
CA 44.8707 -25.9599 65.9953
CA 11.8138 -10.1103 48.8212
CA 24.0669 -13.6746 47.3224
CA 39.5022 -44.3063 64.2276
CA 47.7825 -45.9987 65.3706
CA 8.35033 -19.9914 59.5894
CA 47.2866 -16.1904 73.5664
CA 23.9225 -30.3657 30.7926
CA 9.49376 -3.15592 15.3684
CA 37.5113 -23.497 30.7031
CA 37.8974 -10.2142 38.925
CA 19.7449 -13.1579 55.1535
CA 18.568 -26.2781 58.7683
CA 10.092 -21.4329 21.8322
CA 39.221 -18.6059 63.5172
CA 24.1283 -9.44285 11.6232
CA 9.09391 -20.9882 46.9324
CA 56.1675 -37.3554 50.8462
CA 39.2092 -42.0805 65.2886
CA 33.9823 -21.4901 56.5365
CA 13.3278 -16.1444 42.833
CA 24.4703 -28.4161 49.4727
CA 10.1431 -33.8249 48.1963
CA 34.2959 -12.119 50.6729
CA 28.2083 -10.0265 50.3633
CA 9.86715 -31.8693 57.2102
CA 19.7767 -20.5209 36.8228
CA 18.9841 -39.3354 50.3918
CA 41.232 -28.2872 59.1552
CA 50.1196 -36.1861 51.3596
CA 14.7888 -10.1941 8.38274
CA 54.7775 -19.9681 70.7635
CA 32.4498 -41.4493 66.7959
CA 18.7574 -35.7616 57.9613
CA 14.5177 -34.7333 34.8571
CA 6.23477 -19.5127 22.4082
CA 32.4775 -28.368 91.5737
CA 33.1648 -13.4 35.5052
CA 21.0059 -31.6509 35.0455
CA 10.6049 -27.0861 56.3326
CA 45.9545 -30.6731 26.4617
CA 32.358 -23.8604 47.7194
CA 25.746 -7.66982 13.3456
CA 25.7104 -12.7468 16.8738
CA 10.4878 -28.7455 36.1226
CA 37.8393 -33.8154 85.3018
CA 16.2389 -19.7987 49.8432
CA 12.0724 -16.7895 45.2917
CA 34.9091 -30.1255 58.3751
CA 28.3981 -32.4197 43.0575
CA 42.8779 -28.5287 59.9978
CA 53.9947 -26.6103 51.6144
CA 43.5457 -33.6022 24.6741
CA 28.1248 -29.7431 87.7856
CA 34.4611 -13.1941 60.846
CA 39.659 -5.1278 43.9035
CA 44.1709 -30.244 74.4234
CA 29.1995 -1.43981 58.348
CA 31.9684 -18.0177 56.2671
CA 47.3876 -33.43 82.5162
CA 39.1044 -27.7092 84.3236
CA 21.7034 -11.7866 19.0658
CA 28.7751 -20.4421 47.4567
CA 46.0705 -19.7488 65.3474
CA 43.8083 -30.7014 64.217
CA 41.8312 -25.9717 26.5195
CA 8.7235 -18.9051 46.488
CA 26.653 -11.3949 37.3252
CA 40.2889 -41.9457 37.4528
CA 29.8498 -37.0111 52.915
CA 37.9058 -4.02013 39.6776
CA 40.987 -29.7679 74.7045
CA 47.9394 -24.9825 77.8928
CA 11.4653 -10.8628 11.493
CA 23.5093 -22.8526 78.4411
CA 34.4563 -32.5851 54.1773
CA 21.4812 -29.7785 31.6455
CA 21.5553 -13.3107 36.5205
CA 18.1331 -22.9089 44.1545
CA 5.23657 -24.6892 48.61
CA 54.1889 -12.7778 51.5933
CA 7.4576 -17.1851 21.9881
CA 37.1221 -26.3952 68.5666
CA 43.2749 -27.6043 64.9012
CA 19.4396 -11.9911 47.0492
CA 41.8055 -17.5166 46.2624
CA 12.1001 -32.1743 37.955
CA 45.1733 -17.2011 41.5266
CA 7.99052 -13.9909 54.8389
CA 8.10194 -37.9598 42.01
CA 22.38 -19.6373 40.7783
CA 19.2984 -9.76231 51.4661
CA 53.0869 -10.8243 54.5147
CA 16.8494 -24.9397 57.1596
CA 28.4258 -14.357 31.5383
CA 41.8896 -29.7526 33.2483
CA 25.2732 -18.8371 29.0613
CA 36.7089 -37.5267 37.2231
CA 39.4427 -10.6954 61.0435
CA 41.2075 -23.1569 56.7279
CA 15.5953 -11.8524 19.8496
CA 24.5656 -14.9623 14.6642
CA 20.4793 -37.7648 48.9054
CA 45.9439 -22.2326 52.0708
CA 17.2076 -13.3852 52.4103
CA 35.5213 -23.1848 37.4517
CA 12.8668 -12.5521 16.9753
CA 37.1218 -33.4655 68.9434
CA 11.4371 -27.7772 54.0617
CA 37.9016 -28.4075 37.3985
CA 53.7096 -20.1698 45.7194
CA 26.4703 -30.8612 77.5377
CA 24.1213 -25.3389 61.4378
CA 18.8462 -17.577 58.0479
CA 31.1361 -37.7206 56.6992
CA 16.8132 -2.43354 16.3933
CA 18.2465 -23.598 41.2077
CA 22.7122 -26.0339 24.4393
CA 3.95217 -31.2972 46.3339
CA 29.794 -4.60023 36.1814
CA 24.9803 -5.75806 19.162
CA 41.6538 -3.55213 44.5624
CA 14.5943 -42.7694 46.9958
CA 26.322 -24.6434 34.9584
CA 12.981 8.32715 1.67388
CA 47.7808 -21.1125 51.7201
CA 46.9702 -21.9142 43.2473
CA 26.989 -26.9446 64.6435
CA 16.4488 -28.0888 42.6884
CA 28.697 -12.3342 46.6833
CA 40.9116 -2.07142 45.3176
CA 10.6683 -8.04074 60.1489
CA 38.8529 -13.6807 60.5248
CA 14.3285 -30.0146 34.9368
CA 21.0518 -23.0195 32.7748
CA 8.99535 -4.88135 16.6361
CA 20.4855 -37.3819 56.2999
CA 34.2844 -8.05333 51.1533
CA 48.4054 -32.4081 60.8777
CA 60.3341 -40.742 52.1061
CA 37.0023 -26.9777 73.6826
CA 17.6065 -22.3564 17.7167
CA 8.3897 -16.4305 19.2133
CA 37.9869 -16.1676 49.058
CA 11.4326 -32.316 58.8119
CA 23.2439 -29.1644 51.2625
CA 19.2791 -14.1148 45.738
CA 20.9634 -21.7351 37.4571
CA 37.3126 -42.5321 59.4041
CA 10.4794 -39.4991 47.019
CA 22.9678 -23.3719 62.6265
CA 48.1951 -25.0773 46.5534
CA 14.2787 -36.9803 39.8833
CA 13.924 -11.2854 4.80361
CA 22.6361 -10.952 37.6907
CA 27.7188 -12.3409 50.4542
CA 27.6465 -23.956 31.001
CA 23.1175 -30.4328 89.5705
CA 50.3626 -11.8995 45.4202
CA 45.5131 -24.4592 82.1136
CA 32.6944 -24.1932 57.221
CA 23.014 -31.4808 91.0708
CA 31.4546 -17.8669 35.2
CA 19.0688 -27.4764 20.552
CA 15.3549 -6.98975 17.7339
CA 51.9649 -17.0582 52.7998
CA 21.0961 -25.386 39.5695
CA 49.3937 -13.6348 47.8565
CA 28.1425 -27.2061 46.8894
CA 23.4327 -27.7261 47.711
CA 42.9894 -5.20806 42.7959
CA 24.9781 -15.3427 46.158
CA 40.7017 -20.9001 29.7788
CA 42.3865 -29.1256 44.4714
CA 13.4506 -7.22837 58.3917
CA 36.5678 -26.2931 92.8554
CA 26.6894 -30.9553 48.6509
CA 19.5962 -3.88944 14.9009
CA 29.8164 -29.9186 86.8599
CA 40.3251 -25.9163 34.3207
CA 32.6931 -25.7687 50.3098
CA 42.2926 -20.2171 40.4593
CA 5.80719 -0.695694 20.2185
CA 47.9214 -28.0028 56.234
CA 10.2253 -18.3997 53.4324
CA 26.3508 -24.181 65.7911
CA 61.4587 -36.0317 50.7832
CA 11.4193 0.479487 11.3621
CA 45.8312 -30.5301 69.7889
CA 32.5307 -34.2539 39.5926
CA 52.5632 -25.3557 74.1624
CA 26.6313 -9.83173 36.0653
CA 17.1783 -9.18026 22.6127
CA 23.657 -10.1625 17.2829
CA 20.7312 -9.03453 60.176
CA 28.9569 -26.2042 32.3133
CA 12.2858 12.3779 1.91787
CA 19.4327 -25.2863 47.108
CA 49.5392 -27.2725 33.7909
CA 19.6168 -32.4443 33.9837
CA 31.1056 -23.9255 37.136
CA 25.444 -19.9538 62.7336
CA 45.8633 -14.9552 53.8723
CA 41.0359 -27.2171 27.7398
CA 12.4896 8.32522 4.81934
CA 44.7908 -32.1899 63.5316
CA 29.1579 -33.6259 39.0825
CA 27.6927 -33.0757 57.3167
CA 37.1181 -20.3052 41.0657
CA 35.6666 -40.7124 37.7684
CA 23.1188 -6.378 50.8707
CA 19.0063 -15.3279 37.225
CA 13.0943 5.24995 8.53514
CA 32.8576 -21.8797 41.4011
CA 49.903 -20.5984 43.3449
CA 18.9906 -16.2996 23.5918
CA 7.5713 -18.0883 56.496
CA 55.9676 -37.7127 52.737
CA 25.049 -28.6547 76.6791
CA 38.3534 -25.9167 56.4076
CA 40.9504 -30.5772 45.3677
CA 44.3639 -38.038 40.997
CA 10.1394 -35.5472 37.0031
CA 38.8908 -20.7915 67.5729
CA 23.6608 -33.4714 52.1061
CA 36.4712 -20.3723 60.054
CA 34.7805 -12.7005 45.1412
CA 14.985 7.93784 3.99306
CA 19.9147 -13.375 2.12504
CA 41.0012 -14.7165 45.4729
CA 18.7923 -18.9376 53.5054
CA 43.6655 -13.1472 53.1387
CA 16.3542 -12.0033 56.2914
CA 26.3768 -28.9621 82.1409
CA 41.4163 -0.370207 42.9373
CA 51.4253 -34.4461 53.5245
CA 8.53202 -25.245 49.3951
CA 13.9068 -15.3459 10.0285
CA 39.1635 -45.9323 62.6256
CA 20.3109 -35.9701 50.247
CA 37.791 -14.8178 59.2676
CA 35.5019 -40.625 64.4101
CA 31.7721 -8.62627 38.4054
CA 42.0143 -34.1216 75.7967
CA 23.4441 -13.3011 33.8441
CA 6.2593 -18.6782 49.8411
CA 22.9443 -41.2859 41.8052
CA 9.67469 -8.00492 14.8034
CA 31.9744 -33.8086 56.424
CA 51.1885 -29.4073 47.1966
CA 29.1162 -11.3465 54.9623
CA 58.0695 -12.7673 47.5459
CA 33.5316 -25.0864 75.3499
CA 29.5914 -27.7712 34.7735
CA 24.2657 -32.231 89.5327
CA 20.948 -16.2952 24.2767
CA 37.0087 -10.6635 59.8715
CA 17.6886 -11.4997 6.18939
CA 43.1722 -14.9746 57.5494
CA 46.3971 -11.6812 53.883
CA 8.33603 -8.80839 63.0521
CA 33.423 -33.4813 41.2638
CA 36.0236 -13.8589 50.1847
CA 43.647 -21.198 52.4973
CA 45.6502 -46.8273 65.1532
CA 20.5846 -9.83121 19.5196
CA 54.0453 -20.1851 76.7068
CA 21.3671 -13.3956 39.0352
CA 8.02075 -26.9424 53.214
CA 11.9221 -36.4285 38.7578
CA 40.1877 -49.2273 70.2451
CA 40.9087 -8.71891 39.7697
CA 7.92233 -0.0840564 18.1483
CA 26.6078 -13.5462 62.1987
CA 10.5127 -3.66258 60.6207
CA 39.8087 -30.4975 49.7969
CA 37.3746 -25.9901 57.9425
CA 11.4916 -33.9111 54.0415
CA 36.9549 -28.4766 48.2067
CA 8.57662 -11.5103 17.2365
CA 18.2569 -13.2443 0.635268
CA 14.0643 -32.9064 46.4038
CA 29.5078 -27.3983 74.7406
CA 9.38387 -2.90971 11.5035
CA 25.2009 -28.7832 67.2113
CA 28.834 -12.8696 44.8521
CA 39.597 -3.81831 39.0623
CA 46.208 -22.7412 47.6318
CA 19.2103 -21.6831 52.2638
CA 4.57518 -34.3357 47.6166
CA 52.1797 -33.5971 52.0748
CA 51.7836 -22.7625 40.2168
CA 38.5037 -32.2722 35.4673
CA 28.7569 -12.3882 35.3742
CA 40.6212 -32.581 70.9301
CA 21.1527 -32.125 31.2089
CA 20.9239 -17.3936 33.9384
CA 17.4607 -25.4873 19.4258
CA 45.3639 -20.1672 70.8165
CA 17.688 -7.13766 25.6507
CA 36.5174 -27.7265 53.0521
CA 57.0875 -27.701 46.8175
CA 20.8776 -20.124 27.6881
CA 36.976 -9.56303 62.2972
CA 47.7961 -20.2873 39.3597
CA 31.1718 -25.1405 48.3481
CA 41.2627 -15.0748 57.1423
CA 42.124 -12.5633 55.685
CA 51.0911 -23.388 73.9578
CA 11.4072 -14.169 14.9191
CA 28.7035 -26.7921 60.3345
CA 20.7132 -35.8308 41.1613
CA 42.7801 -22.3063 61.9606
CA 20.9826 -21.8269 20.0497
CA 29.4426 -9.41612 58.7394
CA 19.8997 -34.2217 85.9948
CA 54.5667 -28.7478 52.0707
CA 50.4574 -20.9878 70.2933
CA 19.2297 -11.0324 60.3567
CA 15.7606 -11.8928 51.8076
CA 16.1978 -33.0343 39.8818
CA 35.0756 -17.1859 50.238
CA 29.8128 -34.5695 57.6929
CA 37.786 -23.4019 71.1773
CA 19.7626 -25.2319 62.9432
CA 58.0144 -36.9698 53.2563
CA 38.4334 -40.6805 62.5382
CA 9.47269 -34.1433 44.597
CA 4.7462 -17.2186 55.2942
CA 32.156 -9.09193 52.3092
CA 36.6838 -31.9098 89.4267
CA 33.4754 -43.4962 58.8303
CA 19.2943 -31.782 28.4395
CA 23.3227 -12.5711 49.9728
CA 35.1188 -28.6757 63.7674
CA 26.404 -14.645 58.1823
CA 16.8186 -15.1906 16.6978
CA 35.0761 -38.1925 42.778
CA 22.442 -31.7869 57.0316
CA 45.0487 -13.9517 45.4608
CA 30.6175 -46.2681 60.1301
CA 43.1703 -27.1731 79.3049
CA 32.349 -30.6015 34.4641
CA 41.7251 -44.0375 65.3517
CA 20.9329 -32.6927 64.857
CA 28.3512 -29.3189 90.0384
CA 20.1841 -16.0048 53.7481
CA 21.1931 -36.021 61.4342
CA 25.8278 -25.2368 76.5292
CA 49.7307 -30.4145 52.9125
CA 48.0993 -22.5545 30.0138
CA 16.6025 -10.1615 58.726
CA 26.2902 -29.1452 86.607
CA 46.3275 -3.71892 41.3377
CA 2.95278 -26.3204 46.1387
CA 41.0026 -21.8635 52.8308
CA 24.3709 -9.83652 37.6703
CA 12.6502 -31.8369 55.2999
CA 47.4801 -28.0074 29.5618
CA 25.4032 -20.0673 23.3786
CA 23.8478 -25.3925 55.8369
CA 16.1736 -18.767 23.7
CA 14.5078 -40.3643 56.3175
CA 24.4248 -15.6213 61.7375
CA 41.0467 -22.1775 46.7891
CA 18.0682 -34.8791 49.2986
CA 29.9291 -20.0171 51.315
CA 17.7263 -36.6637 60.0416
CA 39.3624 -17.288 49.9187
CA 12.9373 -14.4683 55.616
CA 21.0402 -10.9122 15.1489
CA 37.5328 -31.7679 41.6094
CA 30.5978 -36.1393 47.3389
CA 44.9446 -23.3006 78.1043
CA 23.674 -6.34698 16.6642
CA 13.8826 6.12407 0.445583
CA 45.146 -34.96 51.2982
CA 6.83826 -32.0667 56.4222
CA 44.8213 -28.4223 82.2138
CA 18.6585 -10.7806 56.9171
