489

CA 45.0509 -14.7177 61.975
CA 16.1781 -4.66085 19.829
CA 16.6814 -7.52869 18.8728
CA 51.4597 -27.2345 56.5826
CA 13.8334 -37.6053 51.2848
CA 31.5882 -33.5377 84.4136
CA 17.8048 -9.3049 17.0525
CA 48.156 -29.2422 61.6168
CA 33.0267 -9.55113 42.7879
CA 11.9388 -17.1429 47.2577
CA 41.4099 -31.2591 36.2773
CA 27.4 -20.197 41.9107
CA 46.6669 -28.8718 52.2803
CA 26.0714 -22.9538 54.7233
CA 48.1798 -25.1339 53.481
CA 26.0034 -21.7402 45.0257
CA 41.5417 -11.3884 61.2248
CA 37.6122 -8.88137 44.7144
CA 31.8226 -18.5584 66.5827
CA 54.8163 -26.5783 43.6942
CA 52.2996 -31.2714 58.6283
CA 23.0552 -36.5726 48.2923
CA 29.2057 -38.1484 67.0087
CA 39.5981 -37.2359 38.7705
CA 44.6136 -6.94026 38.5864
CA 19.5265 -10.8037 50.1938
CA 12.777 -9.4786 10.1819
CA 34.8818 -35.0269 43.6142
CA 30.1222 -24.6262 43.7697
CA 6.65815 -35.5948 44.9192
CA 28.9248 -34.4849 60.0133
CA 48.5327 -23.9601 41.4345
CA 13.5886 -40.6931 51.7676
CA 52.8561 -25.0443 72.11
CA 29.5287 -13.8797 58.7192
CA 9.34905 -17.3777 17.8302
CA 41.8123 -27.6419 72.0147
CA 39.7867 -12.2201 66.0031
CA 7.78847 -29.2662 43.9378
CA 17.2859 -16.3624 25.5249
CA 27.4466 -35.815 38.8792
CA 35.527 -11.691 57.7887
CA 12.3953 -12.7654 21.5984
CA 30.3117 -37.2987 34.2505
CA 45.5446 -23.4846 43.1734
CA 20.7561 -9.74844 45.1943
CA 17.541 -12.2446 13.3547
CA 49.7019 -33.2056 83.3645
CA 24.133 -8.0604 22.3058
CA 18.3269 -36.6624 35.7931
CA 19.6661 -7.87984 56.9298
CA 54.407 -32.409 50.3254
CA 34.9236 -23.3813 65.6821
CA 31.0232 -14.0853 63.3575
CA 36.7534 -43.9773 69.2819
CA 4.90738 -28.4021 49.4706
CA 22.7542 -39.3781 62.139
CA 16.9457 -36.478 41.4654
CA 14.6872 -3.92611 51.8299
CA 27.9753 -3.46358 36.995
CA 19.3692 -35.6388 44.9285
CA 43.6583 -11.634 48.4303
CA 29.8992 -24.2542 59.0502
CA 41.3124 -7.13668 36.3977
CA 9.5123 -32.7393 42.7321
CA 39.6604 -32.8433 46.0313
CA 50.9055 -24.7849 55.2185
CA 41.9601 -10.4772 43.858
CA 32.501 -38.1761 41.9867
CA 19.0319 -30.5825 46.7031
CA 23.5352 -25.2055 51.6988
CA 12.4497 -3.91124 56.5183
CA 31.5428 -26.8077 32.5775
CA 32.7214 -38.99 61.89
CA 54.8314 -26.582 47.1331
CA 23.5719 -19.6843 62.1285
CA 42.6391 -19.0737 66.5007
CA 41.7958 -23.1802 66.3836
CA 36.0246 -47.8261 65.6493
CA 24.6516 -28.0241 52.434
CA 20.9744 -36.9882 60.5617
CA 23.3664 -8.5765 37.887
CA 14.5248 -22.6411 44.2077
CA 15.4429 -22.3195 19.5117
CA 49.4159 -22.7369 54.6165
CA 6.49213 -37.1006 51.8417
CA 25.0082 -36.3355 46.1767
CA 7.69334 -25.8489 51.2962
CA 34.6124 -36.4234 60.7199
CA 29.0325 -39.4676 62.1626
CA 40.3679 -50.2898 60.5267
CA 35.0082 -18.1802 38.031
CA 29.5705 -38.449 36.2289
CA 47.5551 -29.0265 23.3157
CA 15.064 -17.2732 54.2748
CA 30.6692 -35.718 51.8036
CA 15.5524 4.35839 -2.10257
CA 43.9702 -24.9591 77.0939
CA 27.6945 -12.9395 56.7682
CA 27.7019 -22.2039 66.0531
CA 15.4595 -0.363546 49.8576
CA 46.9388 -24.7512 35.3645
CA 22.9873 -14.4315 35.882
CA 16.1093 -20.134 54.8266
CA 36.3183 -36.8561 43.9941
CA 42.0765 -45.5121 67.0819
CA 14.5231 -15.484 54.5094
CA 33.9703 -30.4787 68.855
CA 37.8866 -11.2728 42.247
CA 14.4448 -33.7839 37.2793
CA 19.8598 -22.83 54.4646
CA 24.0669 -13.6746 47.3224
CA 25.8166 -40.4467 69.456
CA 14.0486 -36.9691 40.3779
CA 13.8796 -6.66807 50.6791
CA 26.7943 -38.3574 67.0438
CA 42.8259 -33.5881 47.8812
CA 9.49376 -3.15592 15.3684
CA 37.5113 -23.497 30.7031
CA 37.8974 -10.2142 38.925
CA 19.7449 -13.1579 55.1535
CA 6.55435 -33.4462 41.6542
CA 45.3543 -24.9797 60.8254
CA 9.50443 -37.0211 53.1945
CA 24.1283 -9.44285 11.6232
CA 9.09391 -20.9882 46.9324
CA 6.30588 -17.3021 53.0221
CA 39.2092 -42.0805 65.2886
CA 56.6957 -20.012 43.6663
CA 44.3896 -29.7356 32.9937
CA 36.3092 -23.2981 43.2496
CA 25.7578 -28.377 82.4055
CA 44.4129 -28.2844 77.382
CA 29.2297 -17.2068 53.569
CA 39.607 -9.26755 62.1258
CA 7.49884 -19.1881 51.4101
CA 18.9841 -39.3354 50.3918
CA 8.46781 -26.7128 53.6284
CA 50.1196 -36.1861 51.3596
CA 14.7888 -10.1941 8.38274
CA 54.7775 -19.9681 70.7635
CA 21.431 -36.9623 66.8413
CA 22.7533 -10.7471 0.599061
CA 47.8474 -25.3683 40.3651
CA 44.6693 -24.18 55.9078
CA 17.4326 -30.7596 30.2074
CA 33.3068 -26.008 58.1364
CA 21.0059 -31.6509 35.0455
CA 10.6049 -27.0861 56.3326
CA 32.5833 -28.5699 50.7664
CA 32.358 -23.8604 47.7194
CA 25.746 -7.66982 13.3456
CA 25.7104 -12.7468 16.8738
CA 23.3281 -32.1654 30.5986
CA 37.8393 -33.8154 85.3018
CA 16.2389 -19.7987 49.8432
CA 0.757123 -33.8995 52.0707
CA 25.969 -22.2722 78.9521
CA 28.3981 -32.4197 43.0575
CA 42.8779 -28.5287 59.9978
CA 7.33552 -15.1006 58.0535
CA 21.4096 -29.6013 32.7947
CA 46.893 -0.132032 40.6245
CA 17.0347 -12.4614 22.0258
CA 15.4512 -20.9608 46.8375
CA 44.1709 -30.244 74.4234
CA 36.98 -21.2221 64.4258
CA 31.9684 -18.0177 56.2671
CA 47.3876 -33.43 82.5162
CA 13.7489 -14.5692 23.4602
CA 21.7034 -11.7866 19.0658
CA 21.3751 -21.8705 43.4344
CA 46.0705 -19.7488 65.3474
CA 18.2733 -13.0206 39.716
CA 41.8312 -25.9717 26.5195
CA 19.6302 -41.4919 60.8196
CA 26.653 -11.3949 37.3252
CA 55.2839 -16.7841 51.0961
CA 29.8498 -37.0111 52.915
CA 24.5897 -36.3754 40.6134
CA 40.2208 -29.1133 33.8887
CA 58.5988 -19.3218 66.9537
CA 11.4653 -10.8628 11.493
CA 44.9906 -27.8124 37.2495
CA 34.4563 -32.5851 54.1773
CA 49.4612 -16.0683 51.7534
CA 21.5553 -13.3107 36.5205
CA 48.7183 -24.4222 84.3213
CA 5.23657 -24.6892 48.61
CA 54.1889 -12.7778 51.5933
CA 7.4576 -17.1851 21.9881
CA 25.7049 -42.3324 65.2466
CA 56.6836 -33.685 51.8163
CA 52.3077 -27.2269 61.5224
CA 31.7113 -28.0173 49.088
CA 19.8284 -30.6642 35.99
CA 45.1733 -17.2011 41.5266
CA 49.3378 -19.2742 35.1214
CA 48.2692 -28.6376 35.7305
CA 31.1785 -21.9662 57.5545
CA 44.0395 -9.6304 53.0788
CA 19.5391 -31.8639 89.3905
CA 57.0103 -16.1746 54.6636
CA 28.4258 -14.357 31.5383
CA 23.0618 -32.7578 65.8158
CA 25.2732 -18.8371 29.0613
CA 42.7293 -31.1254 59.9635
CA 11.2535 -37.0304 51.1061
CA 41.2075 -23.1569 56.7279
CA 34.7428 -24.9151 34.6781
CA 24.5656 -14.9623 14.6642
CA 5.51366 -29.8031 45.718
CA 45.9439 -22.2326 52.0708
CA 3.86104 -12.4471 55.4368
CA 35.5213 -23.1848 37.4517
CA 12.8668 -12.5521 16.9753
CA 35.0602 -6.77895 61.4787
CA 11.4371 -27.7772 54.0617
CA 46.9616 -33.1872 59.0811
CA 38.7018 -28.0094 90.3514
CA 26.4703 -30.8612 77.5377
CA 24.1213 -25.3389 61.4378
CA 18.8462 -17.577 58.0479
CA 26.8805 -25.1037 40.5367
CA 16.8132 -2.43354 16.3933
CA 39.5097 -16.4372 70.7808
CA 37.6186 -28.8299 82.6798
CA 23.8701 -22.5798 83.4501
CA 19.0261 -24.8684 20.5171
CA 13.0391 -19.2429 16.3149
CA 29.3419 -13.2101 60.7993
CA 18.9456 -20.9848 35.9175
CA 26.322 -24.6434 34.9584
CA 12.981 8.32715 1.67388
CA 29.3397 -7.84059 39.6409
CA 44.8823 -26.1162 69.4554
CA 36.2831 -27.5764 78.8895
CA 16.4488 -28.0888 42.6884
CA 28.697 -12.3342 46.6833
CA 44.4423 -1.81432 39.9091
CA 10.6683 -8.04074 60.1489
CA 38.8529 -13.6807 60.5248
CA 47.0833 -26.0484 31.2472
CA 23.6894 -22.6978 41.5198
CA 8.99535 -4.88135 16.6361
CA 20.4855 -37.3819 56.2999
CA 34.2844 -8.05333 51.1533
CA 35.9726 -21.2908 38.8618
CA 24.3933 -41.7194 58.0262
CA 37.0023 -26.9777 73.6826
CA 17.6065 -22.3564 17.7167
CA 8.3897 -16.4305 19.2133
CA 27.107 -16.3375 24.2881
CA 29.3627 -24.8798 77.8305
CA 27.8505 -17.8358 64.443
CA 19.2791 -14.1148 45.738
CA 20.9634 -21.7351 37.4571
CA 52.5683 -17.6497 54.7273
CA 10.4794 -39.4991 47.019
CA 22.9678 -23.3719 62.6265
CA 29.2642 -33.8157 84.9815
CA 21.9925 -16.5715 19.9326
CA 13.924 -11.2854 4.80361
CA 22.6361 -10.952 37.6907
CA 27.7188 -12.3409 50.4542
CA 27.6465 -23.956 31.001
CA 28.7475 -30.3302 88.3946
CA 46.7652 -28.4416 83.5936
CA 45.5131 -24.4592 82.1136
CA 32.6944 -24.1932 57.221
CA 36.0557 -33.953 82.0195
CA 22.1076 -26.2123 54.2432
CA 31.0284 -8.00815 51.1277
CA 15.3549 -6.98975 17.7339
CA 51.9649 -17.0582 52.7998
CA 35.5866 -11.9978 63.2639
CA 18.6029 -30.6521 38.9266
CA 28.1425 -27.2061 46.8894
CA 57.3289 -11.0294 53.4067
CA 5.56951 -12.0953 57.4735
CA 24.9781 -15.3427 46.158
CA 48.031 -32.3436 65.5429
CA 42.3865 -29.1256 44.4714
CA 13.4506 -7.22837 58.3917
CA 52.2238 -17.0962 43.2912
CA 26.6894 -30.9553 48.6509
CA 19.5962 -3.88944 14.9009
CA 29.8164 -29.9186 86.8599
CA 40.3251 -25.9163 34.3207
CA 37.3515 -37.3552 40.7563
CA 25.4545 -37.8738 68.8559
CA 17.0183 -31.226 49.3469
CA 22.3668 -14.4461 59.7419
CA 47.6747 -26.9245 26.8138
CA 34.0427 -27.0895 33.2188
CA 26.4417 -23.2565 40.3495
CA 11.4193 0.479487 11.3621
CA 26.1659 -32.7959 76.2943
CA 32.5307 -34.2539 39.5926
CA 52.5632 -25.3557 74.1624
CA 20.187 -26.4937 45.6683
CA 17.1783 -9.18026 22.6127
CA 23.657 -10.1625 17.2829
CA 36.727 -17.1398 42.0821
CA 28.9569 -26.2042 32.3133
CA 12.2858 12.3779 1.91787
CA 19.4327 -25.2863 47.108
CA 0.0363779 -35.6764 49.4205
CA 34.7206 -23.5817 41.6334
CA 45.9248 -13.4387 48.3583
CA 38.5676 -22.0332 53.7346
CA 35.772 -24.992 59.9971
CA 41.0359 -27.2171 27.7398
CA 12.4896 8.32522 4.81934
CA 32.8473 -17.798 47.2577
CA 44.3223 -9.59982 48.0243
CA 27.6927 -33.0757 57.3167
CA 37.1181 -20.3052 41.0657
CA 35.6666 -40.7124 37.7684
CA 48.8511 -29.3245 43.0236
CA 19.0063 -15.3279 37.225
CA 13.0943 5.24995 8.53514
CA 15.9949 -22.6525 50.6958
CA 49.903 -20.5984 43.3449
CA 40.3864 -17.3567 69.1286
CA 7.5713 -18.0883 56.496
CA 15.5076 -12.3884 58.4543
CA 38.7273 -40.9269 60.0442
CA 38.3534 -25.9167 56.4076
CA 40.9504 -30.5772 45.3677
CA 24.9386 -23.623 65.9494
CA 15.4242 -4.83417 55.1755
CA 38.8908 -20.7915 67.5729
CA 39.1451 -31.0307 44.2319
CA 24.2591 -22.4197 29.9768
CA 42.8606 -22.8739 68.1767
CA 14.985 7.93784 3.99306
CA 19.9147 -13.375 2.12504
CA 44.2919 -37.3268 48.1477
CA 18.7923 -18.9376 53.5054
CA 55.7208 -37.3984 49.6296
CA 16.3542 -12.0033 56.2914
CA 51.6157 -18.5294 44.1999
CA 32.6532 -8.86886 35.5859
CA 51.4253 -34.4461 53.5245
CA 31.7639 -20.078 51.9894
CA 13.9068 -15.3459 10.0285
CA 39.1635 -45.9323 62.6256
CA 46.4156 -33.502 47.6052
CA 37.791 -14.8178 59.2676
CA 35.1493 -22.3602 48.9456
CA 58.4665 -19.2949 46.0575
CA 42.0143 -34.1216 75.7967
CA 23.4441 -13.3011 33.8441
CA 6.2593 -18.6782 49.8411
CA 38.1807 -20.1792 34.6991
CA 9.67469 -8.00492 14.8034
CA 31.9744 -33.8086 56.424
CA 51.1885 -29.4073 47.1966
CA 27.4861 -40.6945 68.0328
CA 4.58555 -13.9369 56.8873
CA 51.9925 -28.7415 55.3885
CA 29.5914 -27.7712 34.7735
CA 24.2657 -32.231 89.5327
CA 20.948 -16.2952 24.2767
CA 37.0087 -10.6635 59.8715
CA 17.6886 -11.4997 6.18939
CA 43.1722 -14.9746 57.5494
CA 40.5053 -29.2859 67.9255
CA 44.9377 -7.93708 32.9987
CA 33.423 -33.4813 41.2638
CA 47.7512 -11.6574 63.1176
CA 38.9053 -19.4006 47.5402
CA 45.6502 -46.8273 65.1532
CA 20.5846 -9.83121 19.5196
CA 26.8511 -32.0149 84.9104
CA 49.7735 -14.118 54.0367
CA 16.1754 -1.71921 14.4132
CA 19.2032 -20.7097 23.1072
CA 40.1877 -49.2273 70.2451
CA 40.9087 -8.71891 39.7697
CA 7.92233 -0.0840564 18.1483
CA 26.6078 -13.5462 62.1987
CA 8.04665 -31.5917 51.8146
CA 39.8087 -30.4975 49.7969
CA 17.7675 -10.4021 49.992
CA 7.20126 -15.1775 52.3941
CA 36.9549 -28.4766 48.2067
CA 8.57662 -11.5103 17.2365
CA 18.2569 -13.2443 0.635268
CA 38.3679 -25.9361 91.9764
CA 0.902082 -9.53234 58.2192
CA 31.9852 -6.27924 64.785
CA 25.2009 -28.7832 67.2113
CA 28.834 -12.8696 44.8521
CA 41.4435 -26.0172 78.9254
CA 46.208 -22.7412 47.6318
CA 23.6462 -27.7831 55.9458
CA 4.57518 -34.3357 47.6166
CA 52.1797 -33.5971 52.0748
CA 42.8949 -28.34 34.3345
CA 38.5037 -32.2722 35.4673
CA 18.9631 -24.4952 23.6433
CA 40.6212 -32.581 70.9301
CA 21.2093 -37.6543 62.4857
CA 20.9239 -17.3936 33.9384
CA 17.4607 -25.4873 19.4258
CA 45.3639 -20.1672 70.8165
CA 28.3216 -25.9277 82.3187
CA 36.5174 -27.7265 53.0521
CA 29.0636 -38.3158 59.5489
CA 20.8776 -20.124 27.6881
CA 51.4278 -13.4304 52.4103
CA 47.7961 -20.2873 39.3597
CA 27.4564 -27.832 70.6367
CA 30.9581 -13.614 42.6665
CA 22.8854 -24.0988 30.6026
CA 45.0608 -25.5669 27.6955
CA 11.4072 -14.169 14.9191
CA 55.0683 -33.3413 53.3476
CA 18.5354 -13.2821 43.7474
CA 42.7801 -22.3063 61.9606
CA 20.9826 -21.8269 20.0497
CA 45.1442 -16.7914 63.4743
CA 15.3992 -26.3892 43.1377
CA 22.6109 -22.7417 39.6811
CA 50.4574 -20.9878 70.2933
CA 28.2641 -25.8352 58.7511
CA 38.3318 -16.6024 55.2465
CA 16.1978 -33.0343 39.8818
CA 30.6175 -10.5813 51.0513
CA 29.8128 -34.5695 57.6929
CA 37.786 -23.4019 71.1773
CA 8.41747 -36.7184 48.9133
CA 20.4282 -39.5062 44.8819
CA 16.6034 -22.196 41.216
CA 21.9028 -6.35554 25.0285
CA 4.7462 -17.2186 55.2942
CA 41.7039 -29.5375 85.0472
CA 36.6838 -31.9098 89.4267
CA 33.4754 -43.4962 58.8303
CA 22.0355 -26.8631 33.5453
CA 28.2381 -20.2717 68.8331
CA 35.1188 -28.6757 63.7674
CA 26.404 -14.645 58.1823
CA 16.8186 -15.1906 16.6978
CA 31.1199 -34.9922 44.9952
CA 22.442 -31.7869 57.0316
CA 45.0487 -13.9517 45.4608
CA 20.3728 -40.6134 58.3343
CA 43.1703 -27.1731 79.3049
CA 32.349 -30.6015 34.4641
CA 41.7251 -44.0375 65.3517
CA 14.9393 -12.434 9.63747
CA 48.188 -30.199 58.7179
CA 13.8561 -7.34186 53.0316
CA 36.5126 -29.0558 94.1837
CA 21.6008 -12.2459 41.4927
CA 33.2639 -11.8125 42.9266
CA 48.0993 -22.5545 30.0138
CA 31.3804 -28.0618 76.1336
CA 26.2902 -29.1452 86.607
CA 28.1766 -23.7155 80.0567
CA 28.8925 -28.044 73.2293
CA 41.0026 -21.8635 52.8308
CA 49.6708 -33.732 46.1584
CA 12.6502 -31.8369 55.2999
CA 47.4801 -28.0074 29.5618
CA 25.4032 -20.0673 23.3786
CA 23.8478 -25.3925 55.8369
CA 16.1736 -18.767 23.7
CA 36.2966 -41.776 64.0826
CA 24.4248 -15.6213 61.7375
CA 37.0251 -25.6221 30.9877
CA 3.95949 -11.054 60.275
CA 20.0278 -9.46054 61.1585
CA 9.5676 -5.12085 59.4562
CA 39.3624 -17.288 49.9187
CA 30.2254 -32.2612 50.9513
CA 21.0402 -10.9122 15.1489
CA 37.5328 -31.7679 41.6094
CA 30.5978 -36.1393 47.3389
CA 45.2681 -29.0693 78.9726
CA 23.674 -6.34698 16.6642
CA 13.8826 6.12407 0.445583
CA 45.146 -34.96 51.2982
CA 6.83826 -32.0667 56.4222
CA 44.8213 -28.4223 82.2138
CA 41.5552 -24.5896 44.4697
