489

CA 44.605 -35.3819 53.3771
CA 5.83318 -3.91299 18.7712
CA 16.6814 -7.52869 18.8728
CA 51.4597 -27.2345 56.5826
CA 13.8334 -37.6053 51.2848
CA 39.8106 -25.192 81.5664
CA 17.8048 -9.3049 17.0525
CA 48.156 -29.2422 61.6168
CA 36.8523 -23.9865 73.9474
CA 7.90711 -32.0474 54.376
CA 20.3347 -32.899 50.3788
CA 24.7123 -24.673 63.8414
CA 52.4151 -22.1428 50.5868
CA 26.0714 -22.9538 54.7233
CA 48.1798 -25.1339 53.481
CA 26.0034 -21.7402 45.0257
CA 19.5181 -21.6141 38.6971
CA 37.6122 -8.88137 44.7144
CA 31.8226 -18.5584 66.5827
CA 54.8163 -26.5783 43.6942
CA 36.6419 -12.9247 52.6166
CA 22.3206 -28.771 57.6976
CA 29.2057 -38.1484 67.0087
CA 39.5981 -37.2359 38.7705
CA 44.6136 -6.94026 38.5864
CA 23.9011 -15.5265 59.8413
CA 54.296 -3.24461 54.306
CA 34.8818 -35.0269 43.6142
CA 43.7694 -22.9478 60.2616
CA 6.65815 -35.5948 44.9192
CA 14.0552 -12.3759 49.6932
CA 46.9795 -20.2751 43.7921
CA 13.5886 -40.6931 51.7676
CA 52.8561 -25.0443 72.11
CA 29.5287 -13.8797 58.7192
CA 9.34905 -17.3777 17.8302
CA 32.4708 -34.3391 67.1928
CA 30.2177 -33.7756 41.6523
CA 41.6211 -28.746 81.7717
CA 26.778 -26.3023 65.9721
CA 27.4466 -35.815 38.8792
CA 45.0348 -40.8703 65.072
CA 12.3953 -12.7654 21.5984
CA 53.0524 -19.371 55.8738
CA 29.0678 -7.72451 48.6743
CA 19.8715 -9.08524 9.458
CA 17.541 -12.2446 13.3547
CA 49.7019 -33.2056 83.3645
CA 49.7334 -39.5415 51.1839
CA 18.3269 -36.6624 35.7931
CA 37.008 -28.5249 34.345
CA 54.407 -32.409 50.3254
CA 9.93894 -19.6516 60.2645
CA 45.673 -22.6046 70.5506
CA 36.7534 -43.9773 69.2819
CA 4.90738 -28.4021 49.4706
CA 27.2504 -26.3448 82.0887
CA 16.9457 -36.478 41.4654
CA 12.0992 -28.8773 43.2322
CA 34.0162 -31.8113 82.2163
CA 19.3692 -35.6388 44.9285
CA 43.6583 -11.634 48.4303
CA 29.8992 -24.2542 59.0502
CA 44.2309 -19.4542 38.7742
CA 16.693 -19.1563 41.7155
CA 35.1537 -30.4624 82.8849
CA 17.7302 -11.4563 53.0422
CA 41.9601 -10.4772 43.858
CA 32.501 -38.1761 41.9867
CA 19.0319 -30.5825 46.7031
CA 42.4888 -7.93768 58.0947
CA 12.4497 -3.91124 56.5183
CA 31.5428 -26.8077 32.5775
CA 22.8212 -26.4589 75.0618
CA 59.5646 -17.2476 51.2665
CA 35.0117 -28.4917 33.9115
CA 42.6391 -19.0737 66.5007
CA 41.7958 -23.1802 66.3836
CA 19.0776 -26.3654 36.6082
CA 24.6516 -28.0241 52.434
CA 18.1858 -7.27802 56.0411
CA 23.3664 -8.5765 37.887
CA 34.3312 -35.5414 63.6873
CA 15.4429 -22.3195 19.5117
CA 44.7355 -19.7485 46.9896
CA 12.5507 -28.4515 45.5031
CA 25.0082 -36.3355 46.1767
CA 9.11795 -17.1801 55.4291
CA 34.6124 -36.4234 60.7199
CA 43.4076 -20.1049 43.0048
CA 35.925 -13.2239 42.0049
CA 35.0082 -18.1802 38.031
CA 28.3253 -34.5457 56.2834
CA 32.9333 -34.2133 42.9877
CA 16.836 -18.0013 61.8451
CA 30.6692 -35.718 51.8036
CA 15.5524 4.35839 -2.10257
CA 36.1533 -18.097 31.4901
CA 27.6945 -12.9395 56.7682
CA 23.6431 -23.5873 60.8135
CA 29.3793 -28.7577 80.1283
CA 46.9388 -24.7512 35.3645
CA 22.9873 -14.4315 35.882
CA 16.1093 -20.134 54.8266
CA 36.3183 -36.8561 43.9941
CA 42.0765 -45.5121 67.0819
CA 37.8277 -35.562 81.5768
CA 16.9579 -29.3076 33.7811
CA 37.8866 -11.2728 42.247
CA 14.4448 -33.7839 37.2793
CA 8.93383 -27.5355 51.5373
CA 24.0669 -13.6746 47.3224
CA 25.8166 -40.4467 69.456
CA 30.6894 -5.5537 47.1922
CA 13.8796 -6.66807 50.6791
CA 21.639 -29.3684 67.5964
CA 36.2827 -32.2599 54.516
CA 9.49376 -3.15592 15.3684
CA 37.5113 -23.497 30.7031
CA 36.6503 -30.3513 86.7366
CA 15.8566 -32.3698 42.6618
CA 42.6438 -46.2531 64.8174
CA 45.3543 -24.9797 60.8254
CA 9.50443 -37.0211 53.1945
CA 24.1283 -9.44285 11.6232
CA 10.3759 -17.9051 50.4526
CA 24.866 -12.1121 57.2796
CA 39.2092 -42.0805 65.2886
CA 41.3511 -14.5607 58.3229
CA 44.3896 -29.7356 32.9937
CA 36.3092 -23.2981 43.2496
CA 15.9214 6.84569 2.46126
CA 31.5409 -26.1485 61.7349
CA 29.2297 -17.2068 53.569
CA 42.5426 -19.3985 48.86
CA 7.49884 -19.1881 51.4101
CA 18.9841 -39.3354 50.3918
CA 8.46781 -26.7128 53.6284
CA 50.1196 -36.1861 51.3596
CA 14.7888 -10.1941 8.38274
CA 54.7775 -19.9681 70.7635
CA 29.9103 -39.583 51.3975
CA 22.7533 -10.7471 0.599061
CA 34.1632 -32.1008 50.191
CA 22.5705 -34.7058 48.4053
CA 4.81292 -39.6619 48.2318
CA 22.3222 -22.2328 27.047
CA 21.0059 -31.6509 35.0455
CA 24.1773 -30.7821 81.6674
CA 40.403 -12.5831 47.2177
CA 32.358 -23.8604 47.7194
CA 25.746 -7.66982 13.3456
CA 25.7104 -12.7468 16.8738
CA 23.3281 -32.1654 30.5986
CA 37.8393 -33.8154 85.3018
CA 43.3635 -13.4727 56.1212
CA 22.332 -9.16976 15.012
CA 43.4009 -27.4636 41.8919
CA 16.6247 -37.1691 63.1258
CA 42.8779 -28.5287 59.9978
CA 26.1997 -15.5207 62.6006
CA 33.4566 -24.0286 60.8295
CA 35.7985 -33.2957 87.4423
CA 17.0347 -12.4614 22.0258
CA 15.4512 -20.9608 46.8375
CA 45.2428 -20.0207 68.7609
CA 21.5281 -35.631 46.6877
CA 24.4084 -25.7817 69.777
CA 41.3501 -31.8708 40.2911
CA 49.4554 -11.5947 49.1218
CA 21.7034 -11.7866 19.0658
CA 36.1988 -13.2132 38.7017
CA 7.48022 -22.0598 52.0537
CA 35.8422 -19.4033 50.7821
CA 17.8961 -37.7002 55.6651
CA 19.6302 -41.4919 60.8196
CA 26.653 -11.3949 37.3252
CA 55.2839 -16.7841 51.0961
CA 45.6483 -29.7117 74.8742
CA 25.0533 -19.1902 21.0004
CA 35.0971 -12.9882 45.2722
CA 58.5988 -19.3218 66.9537
CA 11.4653 -10.8628 11.493
CA 44.9906 -27.8124 37.2495
CA 34.4563 -32.5851 54.1773
CA 49.4612 -16.0683 51.7534
CA 21.5553 -13.3107 36.5205
CA 48.7183 -24.4222 84.3213
CA 5.23657 -24.6892 48.61
CA 54.1889 -12.7778 51.5933
CA 29.0083 -16.3319 70.3104
CA 51.4841 -27.0657 51.7582
CA 32.0756 -25.2012 60.2722
CA 24.7964 -24.1171 57.0721
CA 20.2499 -28.1621 34.0894
CA 19.8284 -30.6642 35.99
CA 18.3584 -23.7921 41.8757
CA 33.3594 -6.91353 45.6511
CA 22.976 -34.0275 56.004
CA 11.7025 -8.2126 8.83233
CA 35.8835 -38.6018 43.2448
CA 19.5391 -31.8639 89.3905
CA 57.0103 -16.1746 54.6636
CA 28.4258 -14.357 31.5383
CA 30.6257 -13.7686 31.7158
CA 25.2732 -18.8371 29.0613
CA 39.9141 -21.0277 66.487
CA 47.5089 -25.2293 75.8874
CA 41.2075 -23.1569 56.7279
CA 40.414 -28.0103 73.4601
CA 27.5399 -30.84 28.6684
CA 5.51366 -29.8031 45.718
CA 45.9439 -22.2326 52.0708
CA 3.86104 -12.4471 55.4368
CA 35.5213 -23.1848 37.4517
CA 12.8668 -12.5521 16.9753
CA 48.7838 -29.2392 84.8722
CA 33.2391 -15.3794 70.0911
CA 22.1397 -32.382 78.6604
CA 8.21228 -0.690238 19.8888
CA 19.2905 -3.72006 56.2283
CA 41.4749 -8.79571 42.0831
CA 18.8462 -17.577 58.0479
CA 32.4602 -28.1 56.1501
CA 16.8132 -2.43354 16.3933
CA 39.5097 -16.4372 70.7808
CA 37.8352 -29.2831 81.5941
CA 33.8556 -13.2171 33.8305
CA 24.3131 -36.6833 35.6114
CA 13.0391 -19.2429 16.3149
CA 45.9349 -38.0374 66.2909
CA 34.4848 -26.5102 67.1613
CA 26.322 -24.6434 34.9584
CA 12.981 8.32715 1.67388
CA 29.3397 -7.84059 39.6409
CA 37.0005 -28.642 83.883
CA 53.3136 -9.52524 55.9186
CA 16.4488 -28.0888 42.6884
CA 39.8771 -41.1525 61.4336
CA 43.1423 -32.5404 42.4411
CA 42.6253 -18.4794 38.3754
CA 35.1426 -23.9022 63.527
CA 39.3279 -11.8669 58.3689
CA 44.653 -49.0601 66.3207
CA 8.99535 -4.88135 16.6361
CA 20.4855 -37.3819 56.2999
CA 32.8571 -13.567 50.8874
CA 24.4082 -17.453 33.3786
CA 39.148 -36.4928 61.7518
CA 37.0023 -26.9777 73.6826
CA 17.6065 -22.3564 17.7167
CA 8.3897 -16.4305 19.2133
CA 48.4974 -29.9685 63.8083
CA 31.0638 -28.6768 83.0873
CA 29.3712 -21.8349 42.6907
CA 19.2791 -14.1148 45.738
CA 20.9634 -21.7351 37.4571
CA 33.4662 -10.7429 40.3036
CA 10.4794 -39.4991 47.019
CA 28.0094 -10.9129 48.6208
CA 25.8614 -13.0473 41.4971
CA 21.9925 -16.5715 19.9326
CA 15.7795 -12.6685 12.635
CA 24.5387 -15.7832 22.8056
CA 15.2292 -7.96723 53.2141
CA 27.6465 -23.956 31.001
CA 28.7475 -30.3302 88.3946
CA 46.7652 -28.4416 83.5936
CA 44.7372 -21.1948 39.0159
CA 32.6944 -24.1932 57.221
CA 44.7723 -18.106 36.7042
CA 22.1076 -26.2123 54.2432
CA 38.6609 -7.56658 63.822
CA 15.3549 -6.98975 17.7339
CA 5.05432 -28.5864 53.432
CA 43.6972 -20.7784 51.1684
CA 22.5746 -39.5872 67.3286
CA 28.1425 -27.2061 46.8894
CA 26.552 -10.2424 45.869
CA 38.3557 -25.616 49.197
CA 24.9781 -15.3427 46.158
CA 23.174 -19.1782 60.4138
CA 42.3865 -29.1256 44.4714
CA 13.4506 -7.22837 58.3917
CA 52.2238 -17.0962 43.2912
CA 26.6894 -30.9553 48.6509
CA 19.5962 -3.88944 14.9009
CA 29.8164 -29.9186 86.8599
CA 40.3251 -25.9163 34.3207
CA 23.5297 -32.8084 77.4676
CA 46.5389 -14.7772 54.5786
CA 17.0183 -31.226 49.3469
CA 22.3668 -14.4461 59.7419
CA 31.0117 -24.6694 84.5826
CA 37.2028 -27.6391 26.4544
CA 13.6212 -30.9923 49.0309
CA 11.4193 0.479487 11.3621
CA 15.0928 -10.0955 21.9334
CA 49.8277 -22.4936 52.8841
CA 52.5632 -25.3557 74.1624
CA 52.7251 -38.031 52.183
CA 27.6156 -34.9794 68.4518
CA 23.657 -10.1625 17.2829
CA 27.2456 -23.7107 24.8525
CA 28.9569 -26.2042 32.3133
CA 12.2858 12.3779 1.91787
CA 19.4327 -25.2863 47.108
CA 5.02253 -14.8737 54.9173
CA 34.7206 -23.5817 41.6334
CA 35.2513 -21.7865 66.8353
CA 40.223 -27.9002 33.2739
CA 42.7122 -2.61461 39.2808
CA 41.0359 -27.2171 27.7398
CA 12.4896 8.32522 4.81934
CA 17.4134 -6.82897 20.8503
CA 17.7552 -15.4963 40.618
CA 32.9795 -19.1493 38.2457
CA 37.1181 -20.3052 41.0657
CA 29.2113 -32.3506 79.2069
CA 28.5784 -14.0776 61.1046
CA 19.0063 -15.3279 37.225
CA 13.0943 5.24995 8.53514
CA 15.9949 -22.6525 50.6958
CA 34.7501 -9.71421 66.0142
CA 45.1853 -25.621 41.1055
CA 28.3649 -10.5161 58.1153
CA 36.9753 -17.7127 24.5674
CA 44.9064 0.798192 41.3705
CA 47.8684 -12.6269 53.5877
CA 38.186 -26.8349 53.4527
CA 15.1337 -18.0355 48.3606
CA 24.0738 -34.0779 28.2378
CA 18.8037 -15.7929 23.5572
CA 39.1451 -31.0307 44.2319
CA 55.1906 -15.6503 56.7623
CA 42.8606 -22.8739 68.1767
CA 14.985 7.93784 3.99306
CA 19.9147 -13.375 2.12504
CA 44.2919 -37.3268 48.1477
CA 18.7923 -18.9376 53.5054
CA 53.435 -18.0339 52.3064
CA 16.3542 -12.0033 56.2914
CA 51.6157 -18.5294 44.1999
CA 32.6532 -8.86886 35.5859
CA 36.6483 -35.9162 62.7528
CA 50.3717 -8.46657 47.1431
CA 13.9068 -15.3459 10.0285
CA 5.70066 -34.7582 43.349
CA 46.4156 -33.502 47.6052
CA 18.5634 -8.83206 59.8061
CA 35.1493 -22.3602 48.9456
CA 58.4665 -19.2949 46.0575
CA 41.6532 -9.53304 61.5796
CA 25.6671 -36.2086 67.2689
CA 6.2593 -18.6782 49.8411
CA 49.7886 -30.1755 32.0971
CA 9.67469 -8.00492 14.8034
CA 31.9744 -33.8086 56.424
CA 51.1885 -29.4073 47.1966
CA 49.127 -21.3431 73.3642
CA 7.17116 -4.85577 58.7794
CA 14.191 -28.5138 28.8317
CA 29.5914 -27.7712 34.7735
CA 24.2657 -32.231 89.5327
CA 20.948 -16.2952 24.2767
CA 33.2025 -18.637 50.6137
CA 17.6886 -11.4997 6.18939
CA 42.7228 -11.5949 61.9344
CA 10.0466 -7.68375 20.0854
CA 41.8559 -47.6625 62.3297
CA 42.3416 -30.44 49.4733
CA 23.7591 -28.092 75.5445
CA 28.7201 -25.568 86.9795
CA 45.6502 -46.8273 65.1532
CA 30.5195 -29.4978 48.6464
CA 13.4808 -15.9395 62.8265
CA 28.2995 -16.4156 68.2237
CA 16.1754 -1.71921 14.4132
CA 19.2032 -20.7097 23.1072
CA 40.1877 -49.2273 70.2451
CA 32.1627 -12.0701 45.1909
CA 7.92233 -0.0840564 18.1483
CA 26.6078 -13.5462 62.1987
CA 8.04665 -31.5917 51.8146
CA 37.4007 -17.1713 26.3449
CA 17.7675 -10.4021 49.992
CA 7.20126 -15.1775 52.3941
CA 36.9549 -28.4766 48.2067
CA 8.57662 -11.5103 17.2365
CA 18.2569 -13.2443 0.635268
CA 18.5447 -18.4464 30.2839
CA 0.902082 -9.53234 58.2192
CA 44.6814 -45.8389 67.1498
CA 25.2009 -28.7832 67.2113
CA 33.0097 -20.8918 39.5356
CA 51.7307 -32.2615 50.2463
CA 52.7449 -31.5093 55.4667
CA 30.1405 -30.7722 31.5273
CA 4.57518 -34.3357 47.6166
CA 45.0688 -10.9365 51.9949
CA 11.3832 -31.3354 43.4398
CA 8.91165 -30.6714 55.075
CA 18.9631 -24.4952 23.6433
CA 55.8473 -6.59837 54.8662
CA 21.2093 -37.6543 62.4857
CA 20.9239 -17.3936 33.9384
CA 17.4607 -25.4873 19.4258
CA 45.3639 -20.1672 70.8165
CA 8.31322 -39.5944 47.8286
CA 36.5174 -27.7265 53.0521
CA 29.0636 -38.3158 59.5489
CA 53.5368 -24.8655 57.3527
CA 51.4278 -13.4304 52.4103
CA 22.3779 -28.3285 73.3763
CA 43.6278 -44.7463 70.2384
CA 26.6566 -31.045 70.0199
CA 32.0429 -28.7252 70.934
CA 39.7827 -19.0676 35.0776
CA 11.4072 -14.169 14.9191
CA 34.4393 -40.8244 62.6054
CA 32.2522 -40.6947 43.7406
CA 37.0449 -32.0175 44.2442
CA 33.7842 -32.6098 59.0694
CA 8.78143 -16.9379 59.382
CA 38.903 -18.2576 51.6272
CA 23.0198 -8.63183 46.3875
CA 36.9119 -17.8842 67.7436
CA 28.2641 -25.8352 58.7511
CA 38.3318 -16.6024 55.2465
CA 35.4618 -9.61845 38.0816
CA 39.5016 -42.2251 41.5877
CA 20.732 -19.7855 46.9115
CA 34.2933 -36.0308 48.5359
CA 8.41747 -36.7184 48.9133
CA 36.3845 -18.9156 57.2104
CA 49.9868 -20.9476 55.9662
CA 47.3282 -35.613 49.4957
CA 20.1762 -17.486 39.8942
CA 20.6261 -12.3453 61.8218
CA 36.6838 -31.9098 89.4267
CA 2.26854 -35.1367 43.594
CA 22.0355 -26.8631 33.5453
CA 25.9875 -24.7357 30.5353
CA 25.5383 -8.90271 44.7629
CA 16.1289 -28.9879 29.009
CA 16.8186 -15.1906 16.6978
CA 47.8815 -29.7141 37.5493
CA 22.442 -31.7869 57.0316
CA 35.5604 -30.9772 70.0641
CA 29.3863 -26.0612 75.7737
CA 43.1703 -27.1731 79.3049
CA 38.4788 -10.4228 62.4262
CA 44.2271 -21.2777 74.2747
CA 14.9393 -12.434 9.63747
CA 55.6463 -9.96198 53.369
CA 24.4175 -33.1806 24.3696
CA 29.3154 -32.2859 86.5537
CA 32.7835 -14.2751 52.8663
CA 17.2714 -18.0161 44.6441
CA 56.8274 -23.1911 58.8231
CA 45.5981 -26.4626 31.2819
CA 26.2902 -29.1452 86.607
CA 34.119 -18.0776 46.6235
CA 8.68078 -23.7322 46.7661
CA 40.3388 -10.368 53.3405
CA 33.6284 -6.83895 63.9572
CA 35.5434 -14.7524 57.6994
CA 20.7805 -25.8298 65.6715
CA 25.4032 -20.0673 23.3786
CA 14.6481 -9.62008 57.5445
CA 32.7119 -20.7513 69.3455
CA 34.6365 -33.139 67.45
CA 20.4263 -19.1427 57.5854
CA 37.0251 -25.6221 30.9877
CA 41.3486 -22.0034 29.4513
CA 36.9644 -40.4724 61.5122
CA 9.5676 -5.12085 59.4562
CA 18.3397 -28.293 54.5881
CA 45.9259 -31.6829 45.2603
CA 21.0402 -10.9122 15.1489
CA 14.2504 -37.5251 47.7836
CA 37.4416 -11.3195 61.2083
CA 41.0096 -47.7604 65.2163
CA 23.674 -6.34698 16.6642
CA 13.8826 6.12407 0.445583
CA 45.146 -34.96 51.2982
CA 14.854 -18.9612 56.7765
CA 22.2305 -20.3566 25.5896
CA 41.6999 -30.8188 62.0779
