489

CA 44.605 -35.3819 53.3771
CA 27.2384 -15.5102 17.5033
CA 16.6814 -7.52869 18.8728
CA 40.3764 -26.2465 64.9728
CA 13.8334 -37.6053 51.2848
CA 25.999 -29.3861 45.8076
CA 17.8048 -9.3049 17.0525
CA 48.156 -29.2422 61.6168
CA 31.6404 -19.1538 27.0859
CA 48.3035 -26.244 72.8164
CA 20.3347 -32.899 50.3788
CA 24.7123 -24.673 63.8414
CA 52.4151 -22.1428 50.5868
CA 26.0714 -22.9538 54.7233
CA 48.1798 -25.1339 53.481
CA 36.3065 -6.65553 51.3036
CA 19.5181 -21.6141 38.6971
CA 37.6122 -8.88137 44.7144
CA 31.8226 -18.5584 66.5827
CA 36.5869 -34.5808 83.126
CA 34.1681 -34.8587 63.1489
CA 22.3206 -28.771 57.6976
CA 25.2432 -34.1061 64.8532
CA 39.8006 -37.0337 81.5063
CA 39.5594 -5.38443 54.686
CA 23.9011 -15.5265 59.8413
CA 55.6267 -4.36328 55.596
CA 34.8818 -35.0269 43.6142
CA 12.9587 -19.4918 58.7184
CA 6.65815 -35.5948 44.9192
CA 14.0552 -12.3759 49.6932
CA 46.9795 -20.2751 43.7921
CA 50.5419 -31.0892 40.6942
CA 52.8561 -25.0443 72.11
CA 29.5287 -13.8797 58.7192
CA 9.34905 -17.3777 17.8302
CA 42.7746 -31.5131 60.4823
CA 30.2177 -33.7756 41.6523
CA 40.3629 -25.8096 29.5708
CA 44.6793 -28.4481 78.511
CA 54.0987 -28.5085 44.4498
CA 7.87293 -5.91129 60.0668
CA 28.7499 -19.8529 50.9544
CA 53.0524 -19.371 55.8738
CA 32.3026 -29.2551 87.6217
CA 19.8715 -9.08524 9.458
CA 17.541 -12.2446 13.3547
CA 23.1973 -31.4694 40.5203
CA 41.2757 -38.8636 44.0788
CA 40.2187 -33.6742 78.9031
CA 14.1901 -16.7243 57.4543
CA 51.9554 -27.5945 31.9584
CA 56.0417 -20.9158 63.8906
CA 45.673 -22.6046 70.5506
CA 1.83291 -26.7831 47.8972
CA 27.065 -26.146 83.9302
CA 27.2504 -26.3448 82.0887
CA 20.8577 -35.849 57.2316
CA 14.3809 -28.3151 40.4082
CA 34.0162 -31.8113 82.2163
CA 48.0239 -13.8691 51.1374
CA 34.5787 -16.7049 52.5543
CA 17.6544 -23.4009 39.7455
CA 30.9036 -32.4171 48.3447
CA 49.5049 -32.6477 47.1748
CA 35.1537 -30.4624 82.8849
CA 17.7302 -11.4563 53.0422
CA 41.9601 -10.4772 43.858
CA 50.1037 -43.8471 58.0411
CA 19.0319 -30.5825 46.7031
CA 42.4888 -7.93768 58.0947
CA 54.751 -33.8724 47.7992
CA 41.8721 -33.51 59.1127
CA 22.8212 -26.4589 75.0618
CA 59.5646 -17.2476 51.2665
CA 35.0117 -28.4917 33.9115
CA 23.8461 -39.6697 57.7839
CA 41.7958 -23.1802 66.3836
CA 19.0776 -26.3654 36.6082
CA 24.6516 -28.0241 52.434
CA 18.1858 -7.27802 56.0411
CA 32.1248 -27.1347 66.9363
CA 45.6164 -24.1469 75.1803
CA 15.4429 -22.3195 19.5117
CA 22.8353 -11.5216 43.6861
CA 7.61484 -3.33362 63.7509
CA 16.4368 -28.5235 49.9752
CA 9.11795 -17.1801 55.4291
CA 34.6124 -36.4234 60.7199
CA 43.4076 -20.1049 43.0048
CA 16.6527 -11.7742 55.2062
CA 35.0082 -18.1802 38.031
CA 42.3082 -18.5719 66.4766
CA 32.9333 -34.2133 42.9877
CA 44.3193 -27.9566 34.0941
CA 30.6692 -35.718 51.8036
CA 15.5524 4.35839 -2.10257
CA 50.2108 -33.3859 63.5529
CA 45.7201 -27.6222 55.9393
CA 33.9003 -11.6585 39.9086
CA 28.7058 -13.2735 52.3027
CA 21.2664 -13.1117 54.0498
CA 27.8734 -31.9864 68.6476
CA 54.0883 -25.8674 47.7913
CA 36.3183 -36.8561 43.9941
CA 39.8434 -31.2873 31.9761
CA 37.8277 -35.562 81.5768
CA 16.9579 -29.3076 33.7811
CA 31.8835 -26.9101 78.0468
CA 14.4448 -33.7839 37.2793
CA 35.5733 -11.1024 30.7099
CA 21.9085 -21.5231 39.9158
CA 42.9836 -25.6585 56.5364
CA 14.9454 -32.637 39.0344
CA 16.6034 -24.9787 38.0308
CA 45.3423 -2.06701 48.0028
CA 23.4374 -29.7662 30.8517
CA 9.49376 -3.15592 15.3684
CA 54.0775 -23.4098 52.926
CA 36.6503 -30.3513 86.7366
CA 15.8566 -32.3698 42.6618
CA 42.6438 -46.2531 64.8174
CA 43.3104 -35.6478 55.9096
CA 9.50443 -37.0211 53.1945
CA 42.2063 -9.62982 45.502
CA 8.08776 -20.7609 54.8071
CA 37.9194 -37.1506 45.3755
CA 39.2092 -42.0805 65.2886
CA 25.5189 -36.0777 55.9974
CA 41.5757 -14.8184 58.5787
CA 47.6787 -30.6503 45.631
CA 15.9214 6.84569 2.46126
CA 31.5409 -26.1485 61.7349
CA 29.2297 -17.2068 53.569
CA 42.5426 -19.3985 48.86
CA 10.0365 -16.3283 49.4351
CA 18.9841 -39.3354 50.3918
CA 8.46781 -26.7128 53.6284
CA 50.1196 -36.1861 51.3596
CA 14.7888 -10.1941 8.38274
CA 54.7775 -19.9681 70.7635
CA 29.9103 -39.583 51.3975
CA 22.7533 -10.7471 0.599061
CA 23.2133 -23.1088 61.0793
CA 37.9736 -11.7941 44.2268
CA 4.81292 -39.6619 48.2318
CA 4.54655 -39.8503 51.2141
CA 21.0059 -31.6509 35.0455
CA 29.6406 -38.1904 42.5803
CA 40.403 -12.5831 47.2177
CA 32.358 -23.8604 47.7194
CA 25.746 -7.66982 13.3456
CA 25.7104 -12.7468 16.8738
CA 22.6982 -36.2512 37.6984
CA 37.8393 -33.8154 85.3018
CA 43.3635 -13.4727 56.1212
CA 22.332 -9.16976 15.012
CA 5.45554 -27.4496 47.7899
CA 50.4032 -33.7802 57.3875
CA 42.8779 -28.5287 59.9978
CA 33.2038 -32.5634 70.7968
CA 33.4566 -24.0286 60.8295
CA 18.5076 -12.5342 35.8381
CA 17.0347 -12.4614 22.0258
CA 15.4512 -20.9608 46.8375
CA 21.9273 -8.02109 34.1001
CA 3.22377 -33.5825 41.3226
CA 30.5684 -33.1377 33.1733
CA 7.64109 -25.7662 46.5222
CA 23.4581 -29.8933 67.5082
CA 21.7034 -11.7866 19.0658
CA 36.1988 -13.2132 38.7017
CA 14.964 -23.395 53.0143
CA 35.8422 -19.4033 50.7821
CA 23.8247 -30.5287 80.7644
CA 19.6302 -41.4919 60.8196
CA 26.653 -11.3949 37.3252
CA 55.2839 -16.7841 51.0961
CA 39.1789 -10.352 71.5622
CA 32.7907 -19.2062 70.2778
CA 39.2135 -22.7152 64.4579
CA 58.5988 -19.3218 66.9537
CA 11.4653 -10.8628 11.493
CA 28.714 -13.7961 42.2672
CA 45.1852 -24.3549 45.6841
CA 49.4612 -16.0683 51.7534
CA 21.5553 -13.3107 36.5205
CA 48.7183 -24.4222 84.3213
CA 22.6511 -12.5945 37.9286
CA 54.1889 -12.7778 51.5933
CA 16.1879 -15.8074 61.8169
CA 43.8027 -44.106 63.6315
CA 27.2413 -17.3575 45.5298
CA 23.854 -14.7631 62.009
CA 32.0663 -20.7634 28.3894
CA 43.2435 -22.0674 34.2547
CA 18.3584 -23.7921 41.8757
CA 33.8145 -28.8036 67.0591
CA 25.478 -15.9806 43.549
CA 26.22 -30.0263 57.971
CA 22.8532 -13.014 47.1128
CA 19.5391 -31.8639 89.3905
CA 17.2234 -18.5467 60.1219
CA 36.4631 -25.0065 50.8881
CA 30.6257 -13.7686 31.7158
CA 25.2732 -18.8371 29.0613
CA 39.9141 -21.0277 66.487
CA 47.5089 -25.2293 75.8874
CA 23.0643 -8.39272 38.5478
CA 26.4599 -14.9601 68.8096
CA 40.5703 -15.8702 54.1401
CA 5.51366 -29.8031 45.718
CA 45.9439 -22.2326 52.0708
CA 3.86104 -12.4471 55.4368
CA 7.26099 -31.6988 44.4284
CA 12.8668 -12.5521 16.9753
CA 52.4262 -16.1466 52.3387
CA 53.8126 -34.2036 55.0803
CA 38.759 -18.9169 38.2327
CA 8.21228 -0.690238 19.8888
CA 31.526 -22.544 57.3097
CA 41.4749 -8.79571 42.0831
CA 18.8462 -17.577 58.0479
CA 32.4602 -28.1 56.1501
CA 16.8132 -2.43354 16.3933
CA 37.3731 -21.5421 51.6417
CA 37.8352 -29.2831 81.5941
CA 38.8647 -32.8821 58.7044
CA 6.36968 -26.1938 49.8521
CA 13.0391 -19.2429 16.3149
CA 30.4106 -23.5622 63.7292
CA 33.6036 -35.2617 57.578
CA 51.4165 -25.1108 47.657
CA 14.5364 6.75025 -1.14067
CA 29.3397 -7.84059 39.6409
CA 49.5163 -28.509 58.1288
CA 46.9107 -3.44391 43.3759
CA 47.0487 -20.2319 49.348
CA 23.464 -24.471 24.0161
CA 2.86183 -30.2731 47.2371
CA 42.6253 -18.4794 38.3754
CA 8.51995 -33.0232 43.6026
CA 9.42232 -30.6858 56.8354
CA 44.653 -49.0601 66.3207
CA 8.99535 -4.88135 16.6361
CA 20.4855 -37.3819 56.2999
CA 32.8571 -13.567 50.8874
CA 24.4082 -17.453 33.3786
CA 57.6911 -24.1396 58.2855
CA 28.9853 -35.3188 38.8969
CA 17.6065 -22.3564 17.7167
CA 11.5133 -3.66897 18.7982
CA 41.2471 -4.18295 41.3425
CA 31.0638 -28.6768 83.0873
CA 29.3712 -21.8349 42.6907
CA 10.9435 -2.20444 20.6604
CA 20.9634 -21.7351 37.4571
CA 33.1741 -14.4252 64.4613
CA 41.0705 -37.0148 43.2699
CA 19.4701 -14.7733 11.993
CA 25.8614 -13.0473 41.4971
CA 21.9925 -16.5715 19.9326
CA 15.7795 -12.6685 12.635
CA 17.4174 -32.5161 47.5451
CA 15.2292 -7.96723 53.2141
CA 27.6465 -23.956 31.001
CA 28.7475 -30.3302 88.3946
CA 46.7652 -28.4416 83.5936
CA 44.7372 -21.1948 39.0159
CA 40.576 -27.1406 51.5342
CA 23.5558 -33.6056 59.7307
CA 22.1076 -26.2123 54.2432
CA 38.6609 -7.56658 63.822
CA 15.3549 -6.98975 17.7339
CA 42.1639 -11.0215 68.2876
CA 35.0758 -8.54143 27.467
CA 27.5598 -11.3719 34.339
CA 28.1425 -27.2061 46.8894
CA 33.5741 -13.5528 61.2922
CA 38.3557 -25.616 49.197
CA 24.9781 -15.3427 46.158
CA 23.174 -19.1782 60.4138
CA 44.3191 -41.1603 58.8945
CA 13.4506 -7.22837 58.3917
CA 21.9437 -34.8389 36.4362
CA 30.238 -11.5873 53.4032
CA 19.5962 -3.88944 14.9009
CA 19.9939 -35.2555 46.5697
CA 40.3251 -25.9163 34.3207
CA 25.0715 -27.9073 79.0398
CA 29.6184 -18.0776 55.1078
CA 35.8131 -10.2933 58.8947
CA 22.3668 -14.4461 59.7419
CA 44.0858 -9.67148 50.1726
CA 42.6519 -23.4771 79.4003
CA 21.5072 -34.8646 40.5016
CA 11.4193 0.479487 11.3621
CA 15.0928 -10.0955 21.9334
CA 12.3381 -27.1978 58.5135
CA 52.5632 -25.3557 74.1624
CA 52.7251 -38.031 52.183
CA 24.2622 -25.351 31.0198
CA 23.657 -10.1625 17.2829
CA 27.2456 -23.7107 24.8525
CA 15.6086 -4.95133 59.6484
CA 12.2858 12.3779 1.91787
CA 19.4327 -25.2863 47.108
CA 57.4833 -12.486 51.2312
CA 18.4211 -22.2429 50.1513
CA 38.0491 -29.19 69.4141
CA 40.223 -27.9002 33.2739
CA 42.7122 -2.61461 39.2808
CA 12.5708 -12.5827 13.7901
CA 12.4896 8.32522 4.81934
CA 18.647 -13.2386 47.3146
CA 18.9445 -8.77117 56.7252
CA 32.9795 -19.1493 38.2457
CA 27.4972 -26.3916 34.143
CA 29.2113 -32.3506 79.2069
CA 33.3937 -20.2791 60.2887
CA 48.4437 -10.3452 49.5689
CA 13.0943 5.24995 8.53514
CA 21.6955 -12.7785 33.7766
CA 44.4089 -17.31 37.6028
CA 45.1853 -25.621 41.1055
CA 18.5207 -4.78251 52.8829
CA 34.4033 -31.6942 52.2497
CA 55.8261 -10.1522 55.4862
CA 47.8684 -12.6269 53.5877
CA 38.186 -26.8349 53.4527
CA 15.1337 -18.0355 48.3606
CA 37.4747 -5.26873 51.3325
CA 19.2003 -15.7065 37.8534
CA 35.3448 -33.3192 43.2327
CA 26.8359 -29.176 74.428
CA 51.0508 -9.87756 52.0599
CA 14.985 7.93784 3.99306
CA 19.9147 -13.375 2.12504
CA 44.2919 -37.3268 48.1477
CA 51.337 -45.6701 61.0339
CA 15.5908 -21.6601 48.6589
CA 37.7001 -9.46107 48.6239
CA 51.6157 -18.5294 44.1999
CA 32.6532 -8.86886 35.5859
CA 44.7078 -22.3567 43.0983
CA 23.9879 -22.6277 24.7727
CA 6.10531 -42.3793 53.281
CA 5.70066 -34.7582 43.349
CA 46.4156 -33.502 47.6052
CA 22.5947 -4.60613 14.4709
CA 35.1493 -22.3602 48.9456
CA 25.7901 -9.97379 49.9387
CA 6.1942 -42.2368 51.1044
CA 29.9283 -9.16349 61.924
CA 6.2593 -18.6782 49.8411
CA 39.0057 -31.6718 61.4745
CA 9.67469 -8.00492 14.8034
CA 31.9744 -33.8086 56.424
CA 51.1885 -29.4073 47.1966
CA 49.127 -21.3431 73.3642
CA 34.9775 -19.7265 31.9865
CA 14.191 -28.5138 28.8317
CA 24.1654 -22.8625 46.1055
CA 24.2657 -32.231 89.5327
CA 19.7441 -26.5962 76.8488
CA 24.5106 -27.6732 70.4197
CA 17.6886 -11.4997 6.18939
CA 48.7665 -29.2789 34.3333
CA 10.0466 -7.68375 20.0854
CA 41.8559 -47.6625 62.3297
CA 32.178 -12.6825 39.1429
CA 34.6933 -26.6438 72.7034
CA 35.8168 -29.9123 85.0062
CA 40.4501 -32.8081 68.3832
CA 34.9744 -22.8259 69.7503
CA 58.6784 -13.7248 58.4248
CA 28.2995 -16.4156 68.2237
CA 31.775 -29.7571 71.9908
CA 19.2032 -20.7097 23.1072
CA 40.1877 -49.2273 70.2451
CA 32.1627 -12.0701 45.1909
CA 7.92233 -0.0840564 18.1483
CA 34.4719 -10.389 60.8222
CA 44.9673 -29.2604 83.791
CA 37.4007 -17.1713 26.3449
CA 42.3254 -14.1589 63.4283
CA 7.20126 -15.1775 52.3941
CA 36.9549 -28.4766 48.2067
CA 8.57662 -11.5103 17.2365
CA 18.2569 -13.2443 0.635268
CA 19.521 -17.6983 37.104
CA 57.372 -14.1133 53.9811
CA 42.3088 -48.4452 67.9755
CA 25.2009 -28.7832 67.2113
CA 12.7356 5.79994 4.86592
CA 44.7363 -39.3941 62.3012
CA 23.6494 -12.8204 51.7213
CA 30.1405 -30.7722 31.5273
CA 28.5296 -14.5195 13.125
CA 34.5881 -40.021 40.4217
CA 15.3504 -31.3146 54.5235
CA 8.91165 -30.6714 55.075
CA 18.9631 -24.4952 23.6433
CA 22.9037 -37.8859 32.8965
CA 21.2093 -37.6543 62.4857
CA 29.1193 -9.37998 59.9199
CA 17.4607 -25.4873 19.4258
CA 42.0347 -27.1681 36.6588
CA 8.31322 -39.5944 47.8286
CA 42.2238 -30.2056 42.6265
CA 49.5569 -15.2878 55.8888
CA 53.5368 -24.8655 57.3527
CA 22.3166 -33.4666 44.26
CA 38.4944 -14.4966 38.0994
CA 43.6278 -44.7463 70.2384
CA 26.6566 -31.045 70.0199
CA 5.74652 -17.5515 51.7041
CA 39.7827 -19.0676 35.0776
CA 11.4072 -14.169 14.9191
CA 22.4105 -17.0537 23.6514
CA 21.9513 -9.71414 53.5217
CA 34.6095 -17.3601 65.9513
CA 33.7842 -32.6098 59.0694
CA 42.9584 -38.7157 61.9848
CA 30.5026 -35.5638 56.5115
CA 36.5718 -20.591 29.8935
CA 36.9119 -17.8842 67.7436
CA 28.2641 -25.8352 58.7511
CA 38.3318 -16.6024 55.2465
CA 39.5011 -29.5075 26.1911
CA 50.3725 -37.4512 50.032
CA 20.732 -19.7855 46.9115
CA 34.2933 -36.0308 48.5359
CA 8.41747 -36.7184 48.9133
CA 36.3845 -18.9156 57.2104
CA 38.172 -47.1671 70.151
CA 40.0764 -35.3123 40.5079
CA 11.3997 -4.29222 20.5454
CA 21.8237 -13.9583 61.7181
CA 29.4041 -41.8235 40.272
CA 5.89833 -14.0148 49.572
CA 22.0355 -26.8631 33.5453
CA 6.30836 -16.8978 60.0455
CA 49.2817 -48.3316 62.0115
CA 51.422 -25.7586 63.4133
CA 16.8186 -15.1906 16.6978
CA 42.3062 -28.0967 80.8069
CA 22.442 -31.7869 57.0316
CA 13.4123 -27.9643 53.5353
CA 39.0993 -25.0465 54.7014
CA 43.1703 -27.1731 79.3049
CA 38.4788 -10.4228 62.4262
CA 43.762 -5.91324 46.853
CA 15.7145 -2.17175 58.4853
CA 37.238 -16.5407 37.9986
CA 6.97653 -22.0702 47.3525
CA 40.0032 -23.5907 67.723
CA 25.132 -30.1558 38.5289
CA 18.5015 -20.3676 51.9972
CA 47.0907 -46.752 63.3744
CA 45.5981 -26.4626 31.2819
CA 45.6076 -33.8312 52.7107
CA 34.119 -18.0776 46.6235
CA 55.8947 -2.37166 53.5557
CA 40.3388 -10.368 53.3405
CA 28.3235 -31.1128 66.791
CA 35.5434 -14.7524 57.6994
CA 44.7828 -23.5739 29.8247
CA 25.4032 -20.0673 23.3786
CA 34.2299 -49.2277 68.1801
CA 6.57612 -37.1598 50.2847
CA 53.1488 -40.3654 54.819
CA 31.8258 -23.8059 69.0255
CA 37.0251 -25.6221 30.9877
CA 52.214 -29.0362 57.2794
CA 51.8155 -20.8502 64.9227
CA 9.5676 -5.12085 59.4562
CA 18.3397 -28.293 54.5881
CA 32.4956 -22.5969 42.4003
CA 21.0402 -10.9122 15.1489
CA 14.2504 -37.5251 47.7836
CA 37.4416 -11.3195 61.2083
CA 40.456 -27.6677 76.2074
CA 23.674 -6.34698 16.6642
CA 13.8826 6.12407 0.445583
CA 45.146 -34.96 51.2982
CA 33.0639 -21.7062 74.0995
CA 22.2305 -20.3566 25.5896
CA 41.6999 -30.8188 62.0779
