489

CA -2.76027 -24.3807 16.2287
CA -2.90124 -21.551 38.1398
CA -13.3539 4.42075 72.1023
CA 4.04417 -29.992 34.659
CA -15.0434 -26.6088 28.1572
CA -10.2815 -29.2666 54.0534
CA -21.4392 -3.78878 62.8444
CA 2.57706 3.16522 47.8022
CA 32.3631 -13.7526 48.9805
CA -4.0754 12.5517 69.6932
CA 3.75944 -15.6338 40.7562
CA 10.5693 17.8796 74.4526
CA 13.2837 -8.10598 64.5976
CA -0.206227 -8.71193 64.025
CA -6.0719 -22.5389 47.0645
CA -15.0584 2.33907 40.7273
CA -15.4619 -2.50363 50.1715
CA 26.714 -27.7863 55.2541
CA -12.2325 -38.1077 58.7617
CA 8.11398 -2.52235 56.7238
CA 11.8873 20.6848 64.7946
CA 17.6293 -1.826 64.0963
CA -9.86699 -38.9059 53.412
CA 12.4562 -5.50923 39.494
CA 12.1672 -11.3508 17.3582
CA 12.7803 22.9228 67.3532
CA 20.9761 -5.27802 49.1504
CA 1.01643 -33.1817 51.6837
CA 23.8257 -16.4866 59.0551
CA 20.5185 -25.0075 55.4291
CA 3.98704 -30.1768 26.4444
CA 3.5756 -2.62975 52.6986
CA 25.9123 0.219981 53.4193
CA -20.6555 -6.53289 47.6065
CA 25.4815 -2.18037 67.0913
CA 9.41443 -7.31024 55.1033
CA 10.3172 23.3294 76.806
CA -22.022 -0.939792 45.6778
CA 6.85319 -32.4031 33.2611
CA -22.3616 -9.46128 51.5694
CA 14.1111 -3.15386 46.9182
CA 27.2648 -8.65298 43.8102
CA 18.6544 14.885 85.9246
CA -17.5958 -1.08302 45.0946
CA 14.0124 8.56349 80.4715
CA 11.0801 -5.13189 81.1153
CA 2.50168 7.93195 72.2699
CA -7.71322 -23.0214 49.6876
CA 4.93393 -7.35104 70.8394
CA 23.9544 -23.7582 31.5508
CA 13.2022 -9.1667 50.2157
CA 11.2951 10.4448 89.8792
CA 9.74396 23.7067 66.7422
CA 21.9217 -2.17755 53.5572
CA -25.2999 9.95973 60.0551
CA 44.6794 -13.6475 60.533
CA -11.1335 -38.2144 60.7882
CA 12.1881 10.1823 86.9053
CA -4.63465 -0.742597 47.525
CA -7.04591 10.5069 70.8345
CA 19.1943 -0.411738 62.0501
CA -2.26972 -27.8858 36.7053
CA 11.5794 12.4444 90.3285
CA 7.006 8.34208 72.3201
CA 19.3538 1.36808 62.5255
CA -5.62047 22.6839 26.0591
CA -1.28567 -28.7169 30.9802
CA -4.0488 -18.4882 49.0293
CA 25.931 -16.0054 38.2079
CA 1.54612 -17.1612 50.3658
CA -5.74031 -28.5487 57.5514
CA 21.8067 -23.6554 56.2226
CA 9.05987 -26.866 53.5039
CA 12.7471 23.215 74.2822
CA 4.08629 33.7165 71.9968
CA 15.8812 -0.461062 77.9393
CA 14.4721 2.595 43.4299
CA 3.88236 -20.0508 47.0483
CA 5.98529 7.08906 73.3998
CA 24.6484 2.22885 55.5327
CA 1.46797 -0.383947 70.5507
CA 21.8992 -12.9108 17.145
CA 24.7506 -5.24397 27.8074
CA -10.6579 -21.8536 47.936
CA 9.42193 -4.66732 65.6013
CA 29.3167 6.522 55.3611
CA 17.8526 -11.7321 22.9619
CA -29.9248 8.1198 44.3631
CA -10.9625 11.4117 69.9655
CA 16.1421 -2.52115 57.8545
CA -34.4197 8.19942 43.7239
CA 13.6983 10.9113 90.1991
CA 10.8092 -5.2893 64.1543
CA 0.447003 -5.27085 76.1979
CA 7.12664 -6.46619 68.1978
CA 15.758 -9.64977 77.0734
CA 17.6881 -8.45479 78.9786
CA 23.35 3.4453 56.1301
CA 1.79538 20.6095 58.9854
CA -16.9551 -3.27228 43.9978
CA -21.0332 -7.0069 51.2122
CA -2.03371 -2.10733 63.7137
CA 19.3298 -14.3391 58.6972
CA 20.0541 0.413651 58.5344
CA 0.737381 -7.00953 72.6606
CA 5.43157 -13.7922 41.439
CA 11.3104 -23.6166 51.8576
CA -3.93669 -22.6882 39.4237
CA 7.85597 -19.0361 62.5446
CA 1.93017 14.6331 87.2777
CA 1.38789 21.4918 63.2249
CA 16.0014 -14.1327 23.1197
CA 11.8258 -10.7702 44.2838
CA -4.03174 -24.7512 51.7944
CA -22.1412 -3.16721 61.0859
CA 14.0972 -15.8352 17.1988
CA 21.9768 0.85679 64.2607
CA 5.98907 -10.3214 53.1055
CA 19.316 -2.51119 42.6107
CA 11.156 -15.8697 60.096
CA -36.3186 8.85982 43.1131
CA 21.1374 -24.6576 51.1994
CA 5.76445 -9.70399 40.6399
CA 9.42355 -30.819 33.2382
CA 24.33 -11.1544 28.7407
CA 2.12459 -17.3874 40.0938
CA -0.0967233 3.75812 66.4883
CA -0.589725 0.693501 55.3209
CA -6.73168 7.94884 50.9639
CA 14.8675 -7.36983 79.6726
CA 1.3902 1.60662 54.931
CA -2.92713 5.46434 66.2362
CA 14.9782 -3.97934 41.937
CA 30.0909 -18.7797 52.8797
CA 17.6238 -12.8061 18.9837
CA 18.194 1.875 69.5504
CA 2.00207 31.5688 73.4272
CA 25.5566 -27.2742 57.5873
CA -29.2332 -1.89924 43.8006
CA -5.70538 -34.8169 58.5921
CA 16.6254 -20.8216 62.432
CA -12.2267 -40.6605 62.3536
CA 18.2795 -6.28069 69.2457
CA 23.6472 -15.2716 56.2245
CA 7.69678 -3.99104 58.4859
CA 18.3358 -7.96736 29.8589
CA -5.61558 13.1811 66.4746
CA -20.3982 -12.4443 54.9925
CA 5.17122 8.42942 72.4944
CA -21.9247 -14.2358 53.288
CA 19.4243 -5.98944 48.0939
CA 18.41 -0.706602 47.5093
CA 20.3996 -7.49121 49.0787
CA 43.283 -11.0286 56.9535
CA 21.2169 -11.0487 21.7999
CA 21.6978 -18.5955 57.5092
CA 16.8322 12.5502 79.5406
CA 12.1926 5.68394 81.8385
CA 20.4886 -12.1626 23.3221
CA 17.1384 -8.38949 39.5599
CA -6.28649 -7.37127 43.125
CA 2.40549 -30.6046 47.9987
CA 6.0812 -31.3252 34.5122
CA 6.61074 -29.9056 22.0506
CA 2.79256 18.1427 75.8626
CA 18.491 -25.991 62.9375
CA -4.19142 -27.3128 47.3124
CA 23.4577 -31.0836 59.9022
CA 14.3058 -23.6942 62.5332
CA 0.569618 9.78273 68.5279
CA 17.2551 0.399051 40.7319
CA -6.97496 -18.7046 47.3368
CA -3.71866 5.46258 80.1165
CA 5.66983 -33.0929 36.4476
CA 2.27048 -19.104 48.4161
CA 12.6198 21.0545 73.5044
CA 19.9594 0.897196 68.7976
CA 19.3489 -12.7355 21.3799
CA 13.0213 -18.1702 57.1714
CA -5.96045 -4.00687 43.247
CA 16.8857 -24.7851 34.7944
CA 22.303 -4.58367 36.2007
CA 4.15327 22.7179 73.5881
CA 7.10113 26.2269 63.1822
CA 9.58578 14.9583 76.0338
CA 3.69397 2.58229 75.6986
CA -13.9207 1.60071 42.0584
CA -3.7267 -5.20258 42.7545
CA -11.1523 -10.1726 52.6386
CA 26.0931 -18.1985 39.8639
CA -0.5572 -27.2714 35.0025
CA 22.4913 -21.8359 51.6939
CA 14.6577 -5.94995 75.2747
CA -0.451403 -31.634 49.6972
CA -3.13192 3.78962 67.6469
CA 14.3305 19.6494 76.7364
CA -0.433157 -21.4418 41.3591
CA 21.0255 -24.627 47.2614
CA -1.06603 28.2604 28.8503
CA 20.1803 -13.8796 61.2897
CA 20.9306 -7.61714 24.7069
CA 10.8061 -0.77368 96.2372
CA -17.3724 -23.0812 31.1953
CA 8.47403 -20.6117 51.8905
CA -3.30042 -22.2083 41.7194
CA 5.88242 -26.582 28.2697
CA -22.9601 -16.0507 57.3946
CA -1.93525 -23.3016 46.834
CA 6.84886 -5.14973 65.1663
CA 7.20242 14.84 84.8925
CA -27.8399 -3.93941 43.7183
CA 6.36636 -28.5892 39.7526
CA 16.4087 -6.11319 78.7363
CA 19.7734 -7.08121 65.6048
CA -1.21747 -4.32702 68.4619
CA 14.8674 -12.8895 20.3621
CA 2.46629 -9.44359 69.4232
CA 5.04431 -25.8434 40.6901
CA 8.47607 2.85814 64.9618
CA 33.1095 -19.2692 48.7565
CA 4.66841 -1.30347 54.5303
CA 18.3444 -0.724563 37.8713
CA 18.443 -23.949 54.7905
CA 3.08065 -13.8097 52.9231
CA -0.944539 -24.9471 17.359
CA -11.2766 -42.6853 60.2752
CA 15.0928 -15.1566 19.606
CA 13.0242 -13.6299 60.3261
CA 12.7359 -6.80185 66.3594
CA 16.8458 22.1558 77.6393
CA 4.09366 -0.0432454 42.5872
CA -3.77219 -2.70974 43.9194
CA -13.5471 -39.3767 60.7198
CA 24.2513 -13.5573 62.4468
CA 26.3719 5.96368 49.3988
CA 6.6044 -26.7359 39.0203
CA 15.609 2.01228 77.0931
CA -4.81661 -17.3097 51.2401
CA 36.6785 -19.182 50.1517
CA -14.4011 -7.16595 47.2319
CA 2.01817 -17.7167 46.7918
CA 17.3555 -16.5785 57.4703
CA -6.20501 5.90276 47.8656
CA -14.7964 -7.9501 49.9564
CA -12.7491 0.624552 65.0677
CA 22.9822 -9.45855 41.3248
CA 1.65267 -25.2269 28.6921
CA 7.93037 10.5308 74.6569
CA 11.6456 13.2291 82.113
CA 18.576 -18.881 34.2669
CA 12.3515 -19.9493 53.3888
CA -3.63662 -21.8736 48.2099
CA -9.55207 8.45778 71.0792
CA -22.7598 -12.1083 57.3327
CA 3.38715 23.4765 63.7194
CA 13.1209 -16.2447 58.9862
CA 14.6751 -20.3342 22.8936
CA 25.958 -19.837 50.1303
CA 5.36089 13.664 88.0013
CA -7.00053 -15.7482 46.3099
CA 24.0402 -8.80998 44.3074
CA 7.28703 7.85707 74.5988
CA 17.1229 -3.44061 44.8093
CA -7.80349 -1.47885 46.5682
CA -0.199509 19.5428 73.5026
CA 5.84284 -1.86998 67.14
CA -36.6022 10.6283 42.0249
CA 20.0815 -10.6387 30.6508
CA -23.1895 -15.3278 59.1952
CA 15.297 24.3289 71.5207
CA 0.859753 11.7453 68.709
CA 17.1251 -5.9038 67.8966
CA 22.5342 -15.7447 32.7153
CA 37.017 -21.2444 47.7761
CA 17.3587 -0.165793 67.4254
CA 2.21784 -7.29089 68.33
CA -11.4292 4.5265 76.3815
CA 5.7139 -30.4875 17.5623
CA 17.3451 -10 18.3085
CA 6.03047 7.3198 69.2414
CA -14.7675 -25.1352 30.7202
CA -5.30258 -37.1483 61.0666
CA 25.0651 4.45711 51.1094
CA -8.90182 -4.71943 44.5586
CA -19.7185 -6.68652 45.8138
CA 20.3642 -17.4216 52.1613
CA 16.0718 -5.90174 26.653
CA -2.86275 -16.2119 51.6931
CA 19.8681 -19.0629 32.0233
CA 8.65608 24.5002 72.2012
CA 14.1045 -5.21226 66.6718
CA 4.59245 -11.567 38.7052
CA 1.20193 -27.9426 17.3302
CA 3.43897 -6.02227 74.5144
CA 0.0693823 -1.74517 58.0577
CA 18.4796 -8.72032 21.8551
CA -7.82099 -37.8885 60.0255
CA 4.573 11.496 71.0796
CA -2.42223 2.21927 47.8097
CA 20.0663 -1.8784 55.0723
CA -9.63736 9.15077 42.6101
CA 2.31175 -12.5321 38.7323
CA -2.94279 -18.1799 42.0817
CA -14.8836 -36.0768 52.8703
CA -5.50125 -0.0113434 55.5333
CA 20.4365 -2.48418 41.1118
CA 27.4303 -16.092 55.6998
CA 16.1985 -13.6381 17.6906
CA 22.4817 -2.16691 46.4983
CA 5.70171 29.8742 69.8938
CA -14.9101 9.58007 44.2664
CA 1.11173 35.0498 70.8307
CA -15.3177 -0.119959 43.4806
CA -7.11126 -3.5654 52.8455
CA 17.1162 -9.78991 24.7723
CA 3.10505 -20.4223 45.458
CA 18.2247 -3.98564 47.2066
CA 6.73119 18.6188 78.3786
CA -5.29129 -29.4218 54.3606
CA 3.46682 15.2476 73.3616
CA -21.3347 3.09565 56.8777
CA -26.012 0.306448 44.4447
CA -3.78 -25.9323 27.2112
CA 10.7884 -3.41656 68.0775
CA -2.5555 -18.1692 53.6078
CA 15.478 1.28264 44.281
CA 14.7365 22.676 72.9703
CA -0.0592828 3.99441 78.1344
CA -17.589 -23.187 52.3527
CA 22.1293 -0.514821 70.4763
CA -9.04681 -36.0592 59.7204
CA 12.6332 -20.9213 51.57
CA -3.94511 -14.5668 43.3583
CA 12.14 -17.2643 47.3516
CA 14.8326 -21.9176 56.2577
CA 14.2966 22.1931 66.239
CA 26.0573 -21.021 59.0212
CA -2.3045 -3.77995 43.9049
CA -4.50608 -32.4101 55.4163
CA 15.6339 -26.9208 63.0198
CA 14.6478 -20.7814 34.396
CA 23.3446 -29.1374 57.2316
CA 16.4518 -1.14731 66.1704
CA 20.6102 -6.0506 38.8519
CA -14.0771 9.06861 41.887
CA 11.4847 2.18517 66.258
CA -0.0360456 8.25433 67.1913
CA 11.6962 -10.4241 49.0239
CA 14.2927 23.2106 63.7059
CA -10.8502 -31.3121 62.4578
CA 3.21294 -3.09616 75.6573
CA 6.11351 14.5379 83.1867
CA -22.8377 -16.3255 54.4716
CA 26.7136 -18.1216 53.5325
CA 14.7826 6.36215 80.0072
CA -1.41619 30.5059 72.5506
CA 10.5826 13.9017 88.8858
CA 8.64322 -13.3268 51.2183
CA -2.13314 5.97173 76.0431
CA 1.25186 -6.31733 52.37
CA 47.404 -11.2902 62.5214
CA 17.4006 -12.0249 21.0047
CA 10.9003 -5.41368 66.741
CA 16.2519 -17.0546 38.8451
CA 4.14561 -0.991686 45.1404
CA 0.564253 6.94889 78.9225
CA 13.6148 -1.48088 74.3201
CA -8.94988 5.22659 53.7149
CA -1.82609 24.685 31.5106
CA 21.686 -11.6592 34.0094
CA 5.77256 -8.78401 63.9217
CA -4.0277 -10.9414 44.1008
CA 1.77044 28.8286 72.9359
CA 25.1833 -22.8102 62.0364
CA 20.6322 -16.8114 26.0173
CA 14.2329 10.3429 87.1888
CA 22.9445 -0.791255 56.0385
CA -3.85408 -20.9267 43.9308
CA 10.7172 -7.69435 77.2798
CA 18.365 -7.73963 63.1814
CA 19.6188 -25.4065 53.1881
CA 24.7229 -12.759 32.0676
CA -4.82074 -20.4579 52.5667
CA 11.7025 -20.0016 62.4884
CA 4.30776 34.5702 69.1456
CA 10.3665 -0.931026 68.1959
CA 1.68918 -20.2916 46.6925
CA -4.48644 -31.5658 53.2508
CA 25.7981 -16.3187 50.6724
CA 7.87779 9.75265 73.0309
CA 11.9727 -3.27233 69.9202
CA 16.7761 -7.10551 41.302
CA 19.1843 -11.9927 19.5152
CA 0.672766 -24.1015 16.2426
CA 5.37981 24.0284 69.8636
CA -8.48478 1.06245 49.4238
CA 26.2482 -13.0086 27.2102
CA -30.4096 3.73488 47.3542
CA 15.0025 -17.8541 48.6326
CA -0.713031 -8.64816 54.7246
CA 1.94029 -6.39877 66.1249
CA 30.1192 0.54328 53.8018
CA -9.01376 14.6974 68.4883
CA 13.1556 21.9851 76.1249
CA -6.43758 25.9683 31.8821
CA 18.1649 -8.58658 65.2868
CA 4.82747 -28.7378 37.3401
CA 11.0805 17.2425 84.8558
CA 1.25095 -2.61587 44.1031
CA 0.149401 -5.66259 65.3073
CA 11.1718 -7.32178 65.0604
CA -4.32005 -18.9956 40.556
CA 6.30878 -4.52164 42.6771
CA 27.9156 -13.3984 36.5951
CA -2.68904 -7.82189 52.9005
CA -18.5845 -4.12854 47.5031
CA -13.5951 -0.775906 50.4288
CA -8.31405 28.604 30.9338
CA 25.3412 -1.44439 63.092
CA -19.6502 -1.47906 54.8148
CA -2.08394 22.3632 70.2937
CA -1.83854 -25.3359 39.8955
CA 0.545517 8.43443 61.3914
CA -11.703 -24.3834 43.2352
CA 26.8313 -15.2342 41.0725
CA 17.0689 -21.8422 58.3713
CA 10.1197 -21.7056 51.8304
CA -2.25195 9.15725 63.3298
CA 19.3682 -23.7628 34.3757
CA 15.2428 11.183 82.8553
CA 16.2542 -16.6636 66.8813
CA 13.8212 4.10087 65.9364
CA 5.7654 -20.0536 46.2755
CA 14.2832 -5.28328 46.8161
CA 5.03271 -5.72853 77.764
CA 8.37728 12.1647 78.6342
CA 13.834 2.22395 74.4761
CA -3.98727 -1.37767 55.0779
CA 0.354351 18.882 60.384
CA 12.0878 -24.0272 55.8786
CA 10.5964 20.3252 76.3857
CA 16.4328 -24.4987 55.2736
CA 17.6368 -18.1181 60.1253
CA 25.2427 -30.2807 57.9319
CA 6.3105 -3.85039 75.3394
CA 17.2072 -2.44497 35.0369
CA 0.686197 -9.45774 70.1497
CA 5.75028 4.7745 72.4535
CA 7.25707 0.95081 81.7773
CA 13.4523 -18.0531 63.5236
CA 9.69298 20.4616 73.6739
CA 10.6969 -18.8832 58.8003
CA 25.719 -0.26579 61.122
CA 2.39562 19.3861 60.8624
CA -22.3486 -27.2155 26.9258
CA -19.0803 0.540993 57.315
CA 5.90995 11.4508 86.9073
CA 20.1284 -16.0331 37.5472
CA -2.67258 -20.4434 53.6874
CA -4.24352 23.1666 69.9675
CA -16.3105 -0.481871 46.4894
CA 9.10406 18.6781 76.7998
CA 12.8795 -22.3819 53.2767
CA 0.251906 -17.4105 45.7963
CA 19.346 -0.730373 71.3526
CA 17.826 -16.7643 49.1855
CA -15.48 -24.772 24.8316
CA 21.6168 -8.92773 38.7469
CA 11.7727 -21.2416 64.1255
CA 2.37644 -0.477471 50.1316
CA 5.23236 -3.59271 72.8596
CA 3.93808 25.957 66.839
CA 14.6333 0.914362 59.1764
CA 16.6006 -18.729 21.1768
CA 23.3775 -11.2754 22.5131
CA 11.5471 -2.22764 45.8185
CA -10.3696 -36.1898 55.7349
CA 25.6367 -5.41166 44.7986
CA 22.7684 -17.3353 47.114
CA 3.01234 6.0154 74.8175
CA 3.2179 -5.27775 68.1954
CA 10.2547 -9.06508 54.7401
CA 7.46878 -17.8837 46.9228
CA -8.65121 -39.1115 56.3517
CA 1.85439 -27.9093 28.6591
CA 15.8119 -18.4089 46.2632
CA -2.53371 -19.4885 50.8069
CA 16.6717 -1.37691 55.7757
CA 10.6414 -28.1495 28.1645
